11
MeOH ... Pyridine Monomer B
N    3.26848445   -0.03824769   -0.00215695
C    3.96485284   -0.06268302   -1.14687655
H    3.38037424   -0.03945949   -2.05785199
C    5.35448990   -0.11242588   -1.19556180
H    5.86184225   -0.12971792   -2.14934453
C    6.06486313   -0.13813850    0.00005122
H    7.14519913   -0.17590325    0.00090052
C    5.35261568   -0.11311739    1.19459108
H    5.85841441   -0.13094172    2.14907677
C    3.96306203   -0.06336771    1.14363699
H    3.37705625   -0.04069328    2.05375568
