21
Ethyne ...  Pentane Dimer
C   -0.60618936    0.05587406    0.58900491
H   -1.66803667    0.05577624    0.58901162
C    0.60584873    0.05554087    0.58926624
H    1.66767817    0.05486328    0.58972794
C   -2.53041320   -0.34440529    4.05594940
H   -2.53877983   -1.00635883    3.18953881
H   -2.58233153   -0.97067451    4.94654017
H   -3.43282783    0.26449877    4.02318778
C   -1.26988108    0.51019543    4.06701867
H   -1.28653275    1.18319465    4.92742779
H   -1.24461409    1.14441143    3.17822256
C    0.00003754   -0.32813558    4.10747401
H    0.00004027   -0.94592522    5.01053540
H    0.00010464   -1.01643473    3.25823282
C    1.26993610    0.51024049    4.06710555
H    1.28656392    1.18320761    4.92752685
H    1.24479118    1.14441281    3.17830435
C    2.53045859   -0.34439609    4.05615913
H    2.53883836   -1.00637884    3.18978006
H    3.43283736    0.26453526    4.02343277
H    2.58227582   -0.97061082    4.94679268
