15
Benzene ...  Cyclopentane Monomer B
C   -0.69370071   -0.60340880    5.60124593
H   -0.79995455   -0.42845964    4.52893906
H   -1.34533828   -1.43267270    5.87439659
C    0.77584048   -0.86047189    5.94537581
H    1.27107126   -1.49805694    5.21479153
H    0.83911965   -1.36068567    6.91284244
C    1.41597752    0.54492478    6.03632866
H    2.06624584    0.73759571    5.18447574
H    2.02884471    0.63409420    6.93205402
C    0.23693140    1.54410180    6.06320070
H    0.11977991    2.00307219    5.08091536
H    0.38252499    2.34560663    6.78559930
C   -0.99684037    0.68700661    6.35884956
H   -1.92782888    1.16274406    6.05293642
H   -1.06226613    0.47768570    7.42938480
