18
Benzene ...  MeOH (OH-pi) Dimer
C    0.75974918    1.03127506    0.37377239
H    1.43501626    1.87566427    0.37470462
C    1.26661779   -0.26736234    0.42127308
H    2.33491597   -0.42918019    0.45943234
C    0.39532054   -1.35599116    0.42490511
H    0.78866193   -2.36249259    0.46303549
C   -0.98220564   -1.14665441    0.38127024
H   -1.65765632   -1.99114019    0.38512100
C   -1.48934612    0.15114979    0.33757234
H   -2.55794704    0.31375049    0.30771900
C   -0.61877516    1.24033121    0.33388373
H   -1.01176161    2.24710690    0.30436922
O    0.11170202    0.34226629    2.90114728
H    0.19780223    0.39213938    1.94395373
C   -0.78444858   -0.71534778    3.18420231
H   -0.88016928   -0.77208236    4.26513845
H   -1.77659817   -0.54365004    2.76041211
H   -0.41798826   -1.67838885    2.82129080
