12
Uracil ... Uracil (BP) Monomer B
N    5.03970078   -1.13238850    0.00050387
H    5.48694457   -0.22581530    0.00089069
C    5.89574855   -2.24700629   -0.00099601
O    7.10520058   -2.09530187   -0.00174521
C    5.18153012   -3.50917983   -0.00150040
H    5.74811467   -4.42421058   -0.00263904
C    3.83136115   -3.51299770   -0.00054031
H    3.25439791   -4.42596246   -0.00085898
N    3.09336974   -2.36211686    0.00091011
H    2.06703348   -2.38355966    0.00158718
C    3.66614067   -1.11745182    0.00146075
O    3.01581979   -0.07623351    0.00269715
