12
Benzene ...  Benzene (TS) Monomer B
C    0.11554713    0.09053057    3.72157194
H    0.23767354    0.31601403    2.67114550
C   -0.97553443   -0.66436804    4.14890820
H   -1.69603896   -1.02088230    3.42521378
C   -1.13623441   -0.95849336    5.50185827
H   -1.98334200   -1.54446193    5.83210581
C   -0.20435185   -0.49743998    6.43035235
H   -0.32824535   -0.72540614    7.48035985
C    0.88723325    0.25766207    6.00511207
H    1.61035233    0.61549525    6.72549472
C    1.04603714    0.55114709    4.65162075
H    1.89329506    1.13722189    4.32157342
