19
Benzene ...  MeNH2 (NH-pi) Dimer
C    0.69231523    1.08829204    0.32484124
H    1.28194880    1.99194678    0.25251578
C    1.31818722   -0.15687008    0.28689607
H    2.39314337   -0.21947636    0.18840681
C    0.55801841   -1.32195045    0.38139986
H    1.04391922   -2.28757380    0.35761542
C   -0.82755236   -1.24142187    0.51168501
H   -1.41670095   -2.14525152    0.58533927
C   -1.45341138    0.00367145    0.54838107
H   -2.52823255    0.06570272    0.64984254
C   -0.69346094    1.16840108    0.45622907
H   -1.17873534    2.13440989    0.48572685
N    0.24491651   -0.25061722    4.16597624
H    0.37953487   -0.20657672    3.16290488
H    0.38640908    0.69452952    4.49844851
C   -1.13118296   -0.65700063    4.44341203
H   -1.28905953   -0.68554763    5.51996756
H   -1.90248515   -0.01661984    4.00329303
H   -1.28587494   -1.66656843    4.06779033
