17
Uracil ...  Pentane Monomer B
C    1.11943392    2.35417926    3.79560408
H    0.68858530    2.66522795    2.84282152
H    0.48520000    2.75961238    4.58385173
H    2.10231394    2.81462667    3.88872557
C    1.19245038    0.83530830    3.88512243
H    1.62283402    0.54574545    4.84641338
H    1.86703997    0.44414775    3.12000426
C   -0.17233481    0.17714165    3.73030567
H   -0.84357907    0.54601746    4.51192491
H   -0.61980568    0.48740667    2.78040544
C   -0.11604587   -1.34354490    3.78994116
H    0.30755962   -1.64597531    4.75057735
H    0.57547587   -1.70542384    3.02543873
C   -1.48532879   -1.98541811    3.60616751
H   -1.92370779   -1.71196043    2.64598200
H   -1.42839000   -3.07218649    3.65022470
H   -2.17329157   -1.65707213    4.38540056
