9
AcNH2 ... AcNH2 Monomer B
C    2.97947311    1.06803024    0.14679723
O    2.39505135    0.09400981   -0.33293373
N    2.33538555    2.15277347    0.61464379
H    1.31528018    2.19721125    0.58034247
H    2.85340961    2.92073467    0.99476444
C    4.48647229    1.09231462    0.23202232
H    4.87834336    1.99196414    0.69920633
H    4.89002849    1.00476959   -0.77375799
H    4.81425105    0.22173972    0.79420266
