6
Benzene ...  MeOH (OH-pi) Monomer B
O    0.08990513    0.33010775    3.16532801
H    0.17600534    0.37998084    2.20813447
C   -0.80624547   -0.72750632    3.44838305
H   -0.90196617   -0.78424091    4.52931919
H   -1.79839506   -0.55580858    3.02459285
H   -0.43978515   -1.69054739    3.08547154
