17
Pentane ...  Pentane Monomer B
C    2.53355495    0.28027097    5.23714797
H    2.56813944    0.88007767    4.32782242
H    2.56405826    0.96347755    6.08589279
H    3.43423564   -0.33122634    5.26735691
C    1.27172875   -0.57161630    5.27645222
H    1.26628504   -1.18134401    6.18294918
H    1.27059824   -1.27097005    4.43687116
C   -0.00004624    0.26448280    5.23083578
H   -0.00020117    0.96679278    6.06982026
H    0.00003065    0.87325922    4.32176615
C   -1.27180708   -0.57165918    5.27610732
H   -1.26642484   -1.18176863    6.18235742
H   -1.27070074   -1.27068207    4.43624367
C   -2.53352631    0.28038713    5.23712961
H   -2.56771961    0.88092080    4.32825286
H   -3.43432829   -0.33091123    5.26664280
H   -2.56406584    0.96297337    6.08639101
