12
Pyridine ...  Uracil (pi-pi) Monomer B
N   -0.68422301   -0.26737285    3.62198015
H   -1.57911203   -0.69923634    3.43737666
C   -0.68396813    1.13043694    3.71499115
O   -1.72385121    1.75863675    3.60014102
C    0.63552663    1.68951829    3.94255422
H    0.73684299    2.75674046    4.03842240
C    1.70540022    0.87082598    4.01407427
H    2.70927926    1.23949068    4.16250080
N    1.58733908   -0.48646728    3.90151961
H    2.40077507   -1.07865463    3.89335197
C    0.38689214   -1.13369971    3.67513791
O    0.29475489   -2.33911778    3.54155863
