17
Uracil ...  Pentane Monomer B
C    1.21396951    2.36644762    4.92027373
H    0.78312090    2.67749632    3.96749116
H    0.57973560    2.77188074    5.70852138
H    2.19684954    2.82689503    5.01339521
C    1.28698598    0.84757667    5.00979207
H    1.71736962    0.55801382    5.97108302
H    1.96157557    0.45641612    4.24467390
C   -0.07779921    0.18941002    4.85497531
H   -0.74904347    0.55828583    5.63659455
H   -0.52527008    0.49967504    3.90507508
C   -0.02151027   -1.33127653    4.91461081
H    0.40209522   -1.63370695    5.87524699
H    0.67001147   -1.69315547    4.15010838
C   -1.39079320   -1.97314974    4.73083715
H   -1.82917219   -1.69969206    3.77065165
H   -1.33385440   -3.05991813    4.77489434
H   -2.07875597   -1.64480376    5.51007020
