12
Uracil ...  Uracil (pi-pi) Monomer B
N   -0.82662661   -0.74474573    0.73462494
H   -0.50153790   -1.29122212    1.52335563
C   -0.75870820   -1.36252808   -0.52065500
O   -0.37028685   -2.51607603   -0.62597673
N   -1.46114842    1.30821004   -0.09807182
H   -1.17701100   -0.89584095   -2.61199556
C   -1.47546236    0.79217296   -1.36439740
H   -1.74724247    1.48606177   -2.14564531
C   -1.16423784   -0.49693607   -1.61248722
H   -1.57917971    2.29652264    0.05682913
C   -1.09567052    0.58020771    1.01871830
O   -1.01084151    1.06681811    2.12980905
