15
Cyclopentane ...  Cyclopentane Monomer B
C   -1.12507597   -0.37002998    5.37142377
H   -1.45821047   -0.13333137    4.35883940
H   -1.92986437   -0.91312845    5.86441027
C    0.18853048   -1.16557490    5.32366257
H    0.23847542   -1.82331759    4.45752875
H    0.26881810   -1.79693253    6.20804786
C    1.31784571   -0.10286907    5.32425866
H    1.93911066   -0.16354792    4.43238504
H    1.97525520   -0.25275211    6.17966383
C    0.60767234    1.25879968    5.43212550
H    0.42780916    1.66729146    4.43612637
H    1.18805629    1.99320318    5.98809876
C   -0.73438013    0.92432724    6.08193736
H   -1.47404869    1.71683901    5.97705606
H   -0.59434020    0.73268719    7.14848632
