18
Benzene ...  Ethene Dimer
C    0.83551718    1.11516693    0.02140131
H    1.48432398    1.98060858    0.01953430
C    1.38327497   -0.16614721    0.02376531
H    2.45714902   -0.29520468    0.02277108
C    0.54755466   -1.28131632    0.02168563
H    0.97293610   -2.27580453    0.01977853
C   -0.83552313   -1.11516159    0.02139907
H   -1.48433419   -1.98060639    0.01953009
C   -1.38328358    0.16615413    0.02375775
H   -2.45715618    0.29520906    0.02275707
C   -0.54756577    1.28132347    0.02168025
H   -0.97294284    2.27580548    0.01976873
C    0.65578702   -0.11679268    6.95083189
H    1.04724779   -1.12391151    6.94636363
H    1.37086080    0.69327129    6.94633030
C   -0.65576950    0.11678995    6.95084078
H   -1.37084145   -0.69327457    6.94634469
H   -1.04723261    1.12390885    6.94638259
