12
Benzene ...  Benzene (TS) Monomer B
C    0.13457264    0.11840774    3.88443270
H    0.25669905    0.34389120    2.83400627
C   -0.95650892   -0.63649087    4.31176897
H   -1.67701345   -0.99300513    3.58807455
C   -1.11720890   -0.93061619    5.66471904
H   -1.96431649   -1.51658476    5.99496658
C   -0.18532634   -0.46956281    6.59321312
H   -0.30921984   -0.69752897    7.64322061
C    0.90625876    0.28553924    6.16797283
H    1.62937784    0.64337242    6.88835548
C    1.06506265    0.57902426    4.81448151
H    1.91232057    1.16509905    4.48443419
