12
Benzene ...  Benzene (pi-pi) Monomer B
C    1.94948821    1.11011629    3.60083355
H    2.59433334    1.97630004    3.66458427
C    2.49544134   -0.17103481    3.66235329
H    3.56364822   -0.29918185    3.77509751
C    1.66379186   -1.28663491    3.58370286
H    2.08687357   -2.28098734    3.63335652
C    0.28739030   -1.12099988    3.43898611
H   -0.35771230   -1.98641012    3.37135348
C   -0.25816957    0.15923287    3.37502028
H   -1.32479761    0.28706208    3.25184152
C    0.57310738    1.27451363    3.45709123
H    0.14958250    2.26841867    3.40472230
