14
MeNH2 ... MeNH2 Dimer
N   -0.63864138    0.47091637    0.04456848
H    0.18995436   -0.11393716   -0.00577361
H   -1.30046894    0.08125680   -0.61366848
C   -1.19865882    0.39139858    1.39194660
H   -2.09273777    1.00924471    1.45316749
H   -1.46274551   -0.61584367    1.72945219
H   -0.48027554    0.79867491    2.10108731
N    1.75870866   -0.35652481    0.13826468
H    2.05497733   -0.08198708   -0.78972056
H    2.38225832   -1.10421513    0.41345954
C    1.91893863    0.77868578    1.05193999
H    1.64874833    0.46399000    2.05759309
H    2.92634894    1.20046234    1.08891172
H    1.22639825    1.56446126    0.75928274
