17
Cyclopentane ...  Neopentane Monomer B
C    0.11081151    0.21293416    8.34743823
C    0.01446731    0.06084819    9.86307871
H    1.00701368    0.04538198    10.31543593
H   -0.54445745    0.88873269    10.30151362
H   -0.49269738   -0.86781789    10.12842830
C    0.82486475    1.51983928    8.01181335
H    0.90638430    1.65333841    6.93213148
H    0.28139237    2.37452771    8.41731473
H    1.83246930    1.53048969    8.43004635
C   -1.29420030    0.23275881    7.75011871
H   -1.25726871    0.34994875    6.66626974
H   -1.87649983    1.06018237    8.15846463
H   -1.82410336   -0.69502803    7.97144800
C    0.89871132   -0.96055074    7.77010006
H    0.40349101   -1.90754148    7.99034321
H    0.99355450   -0.87336798    6.68696528
H    1.90342941   -0.99795538    8.19384851
