12
Benzene ...  Benzene (TS) Monomer B
C    0.17155475    0.17259584    4.20100418
H    0.29368116    0.39807930    3.15057774
C   -0.91952682   -0.58230277    4.62834045
H   -1.64003135   -0.93881702    3.90464602
C   -1.08022680   -0.87642809    5.98129051
H   -1.92733439   -1.46239666    6.31153805
C   -0.14834424   -0.41537471    6.90978459
H   -0.27223773   -0.64334087    7.95979209
C    0.94324086    0.33972734    6.48454431
H    1.66635995    0.69756052    7.20492696
C    1.10204476    0.63321236    5.13105299
H    1.94930267    1.21928716    4.80100566
