7
MeOH ... MeNH2 Monomer B
N    4.19830338   -0.14798088   -0.00816441
H    4.56892293    0.35979563    0.78496798
H    4.56904622    0.31635769   -0.82742324
C    4.67605531   -1.53401432    0.02929680
H    4.28417047   -2.06803960   -0.83289493
H    5.76276647   -1.64074949    0.03233129
H    4.28392891   -2.02074449    0.91892894
