21
Ethyne ...  Pentane Dimer
C   -0.60618936    0.05587406    0.58900491
H   -1.66803667    0.05577624    0.58901162
C    0.60584873    0.05554087    0.58926624
H    1.66767817    0.05486328    0.58972794
C   -2.53038526   -0.35357453    4.54455541
H   -2.53875189   -1.01552807    3.67814482
H   -2.58230359   -0.97984375    5.43514618
H   -3.43279988    0.25532953    4.51179378
C   -1.26985313    0.50102619    4.55562468
H   -1.28650480    1.17402541    5.41603380
H   -1.24458615    1.13524220    3.66682857
C    0.00006549   -0.33730481    4.59608001
H    0.00006822   -0.95509446    5.49914141
H    0.00013258   -1.02560397    3.74683882
C    1.26996404    0.50107126    4.55571155
H    1.28659187    1.17403837    5.41613286
H    1.24481913    1.13524357    3.66691036
C    2.53048654   -0.35356532    4.54476514
H    2.53886630   -1.01554808    3.67838606
H    3.43286531    0.25536602    4.51203878
H    2.58230377   -0.97978006    5.43539869
