24
Uracil ...  Uracil (pi-pi) Dimer
N    1.37690111    0.83974747    0.73462494
H    1.05181240    1.38622385    1.52335563
C    1.30898271    1.45752981   -0.52065500
O    0.92056136    2.61107777   -0.62597673
N    2.01142293   -1.21320830   -0.09807182
H    1.72728551    0.99084268   -2.61199556
C    2.02573687   -0.69717123   -1.36439740
H    2.29751698   -1.39106004   -2.14564531
C    1.71451235    0.59193780   -1.61248722
H    2.12945422   -2.20152091    0.05682913
C    1.64594503   -0.48520598    1.01871830
O    1.56111602   -0.97181638    2.12980905
N   -0.55148935   -0.69724487    0.73462494
H   -0.22640064   -1.24372125    1.52335563
C   -0.48357095   -1.31502721   -0.52065500
O   -0.09514960   -2.46857517   -0.62597673
N   -1.18601117    1.35571090   -0.09807182
H   -0.90187375   -0.84834009   -2.61199556
C   -1.20032511    0.83967383   -1.36439740
H   -1.47210522    1.53356264   -2.14564531
C   -0.88910059   -0.44943520   -1.61248722
H   -1.30404245    2.34402350    0.05682913
C   -0.82053327    0.62770858    1.01871830
O   -0.73570426    1.11431897    2.12980905
