12
Benzene ...  Benzene (pi-pi) Monomer B
C    1.70552689    1.11240529    2.90292943
H    2.35037201    1.97858903    2.96668014
C    2.25148002   -0.16874581    2.96444916
H    3.31968690   -0.29689286    3.07719338
C    1.41983054   -1.28434591    2.88579873
H    1.84291224   -2.27869834    2.93545239
C    0.04342898   -1.11871088    2.74108198
H   -0.60167362   -1.98412112    2.67344935
C   -0.50213089    0.16152187    2.67711615
H   -1.56875893    0.28935108    2.55393739
C    0.32914605    1.27680263    2.75918710
H   -0.09437883    2.27070766    2.70681817
