29
Uracil ...  Pentane Dimer
N   -0.20890478   -0.96458262    0.53476104
H   -0.22415099   -1.97310940    0.60508386
C   -1.44634208   -0.34458112    0.30665858
O   -2.46123675   -1.01079161    0.19789196
C   -1.35778219    1.10318559    0.22814378
H   -2.25657214    1.66773071    0.04984731
C   -0.16300320    1.70989257    0.38112632
H   -0.04629046    2.78244591    0.33334968
N    0.98545210    1.00082412    0.61120636
H    1.86755978    1.46692777    0.74478430
C    1.02702092   -0.37917011    0.71264723
O    2.04919670   -0.99739548    0.93725979
C    1.17099475    2.36087057    4.40901227
H    0.74014614    2.67191926    3.45622971
H    0.53676084    2.76630369    5.19725992
H    2.15387478    2.82131798    4.50213376
C    1.24401122    0.84199962    4.49853061
H    1.67439486    0.55243676    5.45982157
H    1.91860081    0.45083907    3.73341245
C   -0.12077397    0.18383296    4.34371385
H   -0.79201823    0.55270878    5.12533310
H   -0.56824484    0.49409798    3.39381363
C   -0.06448503   -1.33685359    4.40334935
H    0.35912046   -1.63928400    5.36398554
H    0.62703671   -1.69873253    3.63884692
C   -1.43376795   -1.97872680    4.21957570
H   -1.87214695   -1.70526911    3.25939019
H   -1.37682916   -3.06549518    4.26363289
H   -2.12173073   -1.65038081    4.99880875
