29
Peptide ...  Pentane Dimer
C    1.37219093    1.01247736    0.97082468
H    0.95217623    2.01404955    1.03311725
H    1.94742170    0.92651560    0.05071776
H    2.05170208    0.85182517    1.80295247
C    0.32673706   -0.07764727    0.98819876
O    0.61882128   -1.25248130    1.17128126
N   -0.95002884    0.34488680    0.77391491
H   -1.10467156    1.32202550    0.60611216
C   -2.05985440   -0.57736895    0.68015349
H   -1.66935602   -1.56679601    0.89718425
H   -2.83459176   -0.33138032    1.40366139
H   -2.49097050   -0.57892483   -0.31993926
C    2.65415585    0.45818901    4.77709062
H    2.77099513    1.21260490    3.99834579
H    2.56804548    0.98307533    5.72874667
H    3.56624729   -0.13605290    4.80389863
C    1.42588362   -0.40519850    4.51953907
H    1.33131427   -1.15065251    5.31258990
H    1.54230375   -0.95866283    3.58569526
C    0.14334578    0.41341544    4.45423772
H    0.03177546    0.99115033    5.37732136
H    0.22257993    1.14623035    3.64458506
C   -1.10101051   -0.43691979    4.23735782
H   -1.19181248   -1.15140628    5.05877504
H   -0.97320350   -1.02585752    3.32714336
C   -2.36784901    0.40337172    4.14724309
H   -2.30093577    1.11042270    3.31947386
H   -3.25319122   -0.21264578    3.99341019
H   -2.51820505    0.97958281    5.06046269
