7
Peptide ... MeNH2 Monomer B
N    4.31670122    0.36526398    0.36344691
H    4.72036755    0.90518350    1.11864700
H    4.73470510    0.73264522   -0.48219901
C    4.68900406   -1.04591884    0.51719966
H    4.26271666   -1.61695142   -0.30417579
H    5.76440270   -1.23260829    0.54298306
H    4.25453149   -1.43032585    1.43703566
