11
Benzene ...  Pyridine (TS) Monomer B
N    0.01390687    0.20352837    7.50515682
C    0.16859069    1.14148997    6.56027994
H    0.31036151    2.15401598    6.91818167
C    0.15438142    0.87420021    5.19378050
H    0.28462148    1.67522601    4.47989509
C   -0.02995689   -0.43742948    4.76849007
H   -0.04652335   -0.68054814    3.71514214
C   -0.19180582   -1.42246381    5.73734916
H   -0.33834884   -2.45767478    5.46257765
C   -0.16260335   -1.05513071    7.08043867
H   -0.28619948   -1.80264468    7.85453966
