20
Benzene ...  AcOH (OH-pi) Dimer
C    0.96408039    0.87509331    0.37801364
H    1.65982961    1.69993082    0.44604227
C    1.43105709   -0.41313344    0.11899152
H    2.48952453   -0.58720917   -0.01701261
C    0.53412766   -1.47763890    0.04241755
H    0.89696129   -2.47738838   -0.15201199
C   -0.83032682   -1.25360409    0.22085611
H   -1.52576001   -2.07962435    0.16411655
C   -1.29758715    0.03441261    0.48024263
H   -2.35439607    0.20801612    0.62856096
C   -0.40044509    1.09977921    0.56160137
H   -0.76045514    2.09376880    0.78475698
C   -0.02354983    0.34033375    5.66381253
O   -0.49173943    1.38978037    5.28455214
O    0.37966275   -0.63722952    4.82452727
H    0.21095792   -0.31131593    3.92312201
C    0.18640447   -0.05665334    7.09521832
H   -0.12356168    0.75268325    7.74520721
H   -0.38967626   -0.95327731    7.31216943
H    1.23490189   -0.29278542    7.26023690
