21
Ethyne ...  Pentane Dimer
C   -0.60618936    0.05587406    0.58900491
H   -1.66803667    0.05577624    0.58901162
C    0.60584873    0.05554087    0.58926624
H    1.66767817    0.05486328    0.58972794
C   -2.53046054   -0.32887302    3.22827271
H   -2.53882717   -0.99082655    2.36186213
H   -2.58237887   -0.95514223    4.11886349
H   -3.43287516    0.28003104    3.19551109
C   -1.26992841    0.52572770    3.23934198
H   -1.28658008    1.19872692    4.09975110
H   -1.24466143    1.15994371    2.35054588
C   -0.00000979   -0.31260330    3.27979732
H   -0.00000706   -0.93039295    4.18285872
H    0.00005730   -1.00090246    2.43055613
C    1.26988876    0.52577277    3.23942886
H    1.28651659    1.19873989    4.09985016
H    1.24474385    1.15994509    2.35062767
C    2.53041126   -0.32886381    3.22848244
H    2.53879102   -0.99084656    2.36210337
H    3.43279003    0.28006753    3.19575608
H    2.58222849   -0.95507855    4.11911599
