26
Pentane ...  AcNH2 Dimer
C   -2.58777605   -0.32310566    0.46945828
H   -2.61038910   -0.87636604   -0.46961946
H   -2.65974410   -1.05188654    1.27771411
H   -3.47603507    0.30562460    0.50896129
C   -1.30955982    0.49739424    0.58506260
H   -1.31725060    1.08326190    1.50634108
H   -1.26237673    1.21557375   -0.23677617
C   -0.05682966   -0.36826029    0.55844017
H   -0.08617526   -1.07335882    1.39587537
H   -0.05380919   -0.97684333   -0.35147393
C    1.23159606    0.44006559    0.63203246
H    1.21328340    1.05356193    1.53459305
H    1.26629733    1.13137662   -0.21310563
C    2.47257523   -0.44314441    0.61922148
H    2.52071888   -1.03526342   -0.29489695
H    3.38773437    0.14408974    0.68390871
H    2.45929703   -1.13936423    1.45861821
C    0.04907896    0.21603512    4.44181793
O    0.07599122    1.40110860    4.14997675
N    1.18165923   -0.53584253    4.54463788
H    2.05259948   -0.11326201    4.27597562
H    1.14272126   -1.52772919    4.67606080
C   -1.24114202   -0.52290237    4.70627176
H   -1.09389202   -1.48362373    5.19339613
H   -1.74736955   -0.68121130    3.75545842
H   -1.87908597    0.10433406    5.32154362
