15
Uracil ...  Cyclopentane Monomer B
C    1.05288504   -0.86141900    4.27420098
H    1.50673755   -0.95347523    3.28621842
H    1.59738754   -1.52539926    4.94339865
C    1.10719851    0.60453301    4.70713696
H    2.06548850    1.07743194    4.49641267
H    0.91908322    0.68617055    5.78036009
C   -0.06015307    1.21734748    3.93636576
H    0.21415120    1.30612909    2.88289413
H   -0.34456750    2.20848861    4.28799977
C   -1.17709756    0.17977557    4.10739407
H   -1.90263684    0.20338943    3.29602216
H   -1.72118319    0.38447273    5.02964269
C   -0.45406122   -1.18677226    4.21105096
H   -0.69672577   -1.83092838    3.36769128
H   -0.76916745   -1.71417467    5.11013738
