9
Benzene ... AcNH2 (NH-pi) Monomer B
C    0.03757397    0.35691499    5.05499553
O    0.28406332    1.40034123    4.46775625
N   -0.26647328   -0.79809155    4.40382819
H   -0.24127297   -0.80510688    3.39719158
H   -0.42224976   -1.65358387    4.89952990
C    0.06041867    0.26202316    6.56341300
H    1.09213247    0.34623544    6.89848680
H   -0.36148524   -0.66461984    6.94443867
H   -0.48904599    1.10586947    6.97018351
