12
Benzene ...  Uracil (pi-pi) Monomer B
N   -0.26995104    0.65773106    3.34878567
H   -0.64325843    1.55949249    3.08589270
C    1.12219564    0.58474415    3.48079901
O    1.81310596    1.57916784    3.33596495
C    1.60109576   -0.74933356    3.79890921
H    2.65814785   -0.90154950    3.93303035
C    0.72138653   -1.76371473    3.92512574
H    1.02731405   -2.77213534    4.16165010
N   -0.62385936   -1.57868282    3.75503359
H   -1.27260719   -2.34124176    3.85390276
C   -1.19830767   -0.35388179    3.45561898
O   -2.39609608   -0.20305851    3.31350679
