17
Peptide ...  Pentane Monomer B
C    2.77874714    0.54539561    6.23658340
H    2.89558642    1.29981151    5.45783858
H    2.69263677    1.07028194    7.18823946
H    3.69083858   -0.04884629    6.26339141
C    1.55047491   -0.31799190    5.97903185
H    1.45590556   -1.06344590    6.77208269
H    1.66689504   -0.87145622    5.04518805
C    0.26793707    0.50062205    5.91373050
H    0.15636675    1.07835693    6.83681415
H    0.34717121    1.23343696    5.10407785
C   -0.97641922   -0.34971318    5.69685060
H   -1.06722119   -1.06419967    6.51826783
H   -0.84861222   -0.93865091    4.78663615
C   -2.24325772    0.49057832    5.60673588
H   -2.17634448    1.19762930    4.77896664
H   -3.12859993   -0.12543917    5.45290297
H   -2.39361376    1.06678941    6.51995547
