11
Pyridine ...  Pyridine (CH-N) Monomer A
N   -0.94121124    0.79004136    0.01171891
C   -0.92275524   -0.55237814    0.03537875
H    0.05724051   -1.01558800    0.05135491
C   -2.07651907   -1.33301813    0.03929035
H   -1.99652895   -2.41058573    0.05887720
C   -3.31631294   -0.70333955    0.01759905
H   -4.23157489   -1.27908429    0.01979377
C   -3.34889528    0.68701881   -0.00708596
H   -4.28544414    1.22610455   -0.02465899
C   -2.14310382    1.38263356   -0.00889005
H   -2.13809974    2.46565258   -0.02778297
