21
AcNH2 ... Uracil Dimer
C   -1.23272700    1.21163896   -0.14162406
O   -0.57127667    2.24201573    0.02561679
N   -0.67058051    0.00388878   -0.31428147
H    0.34384695   -0.09056011   -0.30832667
H   -1.24421373   -0.80632370   -0.44668271
C   -2.73824495    1.26675766   -0.15588657
H   -3.07797534    1.64660511    0.80450159
H   -3.20211503    0.30286549   -0.34621112
H   -3.04998747    1.97549049   -0.91859737
N    4.28755463    1.11881834   -0.11837914
H    4.77758407    0.24286116   -0.23631761
C    5.09118064    2.26166328    0.03210256
O    6.30674267    2.16604095    0.01691778
C    4.31858846    3.47697976    0.19524649
H    4.84035145    4.41017262    0.31828162
C    2.96942775    3.41530423    0.18956974
H    2.34902370    4.29166462    0.30724663
N    2.28434565    2.24302272    0.03500397
H    1.25155517    2.23396166    0.03416665
C    2.91523561    1.03855322   -0.12725607
O    2.31804688   -0.02536274   -0.26906356
