12
MeNH2 ... Peptide Monomer B
C    2.18322687    2.69533703   -0.13922834
H    2.30784534    3.10651376   -1.13827268
H    2.68979824    3.33632958    0.57855618
H    1.11681511    2.66880750    0.07919308
C    2.69521856    1.27753934   -0.13693431
O    2.23523867    0.41180292   -0.87610893
N    3.68170153    1.00450700    0.75539640
H    4.08146255    1.75943977    1.28074915
C    4.27014687   -0.31508355    0.83289596
H    3.48197025   -1.05641369    0.73987537
H    4.99140665   -0.48707892    0.03435157
H    4.76480038   -0.43095174    1.79283549
