19
MeNH2 ... Peptide Dimer
N   -0.56970824    0.81437245    0.10109775
H    0.13087774    0.56141065   -0.58761455
H   -1.46125215    0.52691480   -0.28042996
C   -0.30551437    0.06571030    1.32879173
H   -1.05714948    0.31427017    2.07595940
H   -0.28802353   -1.02229248    1.21484626
H    0.66045772    0.36850913    1.73024224
C    1.85107379    2.71895116   -0.09369229
H    1.97569226    3.13012789   -1.09273662
H    2.35764516    3.35994371    0.62409223
H    0.78466203    2.69242163    0.12472914
C    2.36306548    1.30115348   -0.09139826
O    1.90308559    0.43541706   -0.83057287
N    3.34954844    1.02812114    0.80093245
H    3.74930947    1.78305391    1.32628521
C    3.93799378   -0.29146941    0.87843202
H    3.14981717   -1.03279956    0.78541142
H    4.65925357   -0.46346478    0.07988763
H    4.43264730   -0.40733760    1.83837155
