9
AcNH2 ... AcNH2 Monomer B
C    2.79388826    1.06418193    0.13524643
O    2.20946650    0.09016149   -0.34448454
N    2.14980070    2.14892515    0.60309298
H    1.12969533    2.19336294    0.56879167
H    2.66782477    2.91688635    0.98321363
C    4.30088745    1.08846631    0.22047151
H    4.69275851    1.98811583    0.68765552
H    4.70444364    1.00092127   -0.78530880
H    4.62866621    0.21789141    0.78265185
