24
Uracil ...  Uracil (pi-pi) Dimer
N    1.37690111    0.83974747    0.73462494
H    1.05181240    1.38622385    1.52335563
C    1.30898271    1.45752981   -0.52065500
O    0.92056136    2.61107777   -0.62597673
N    2.01142293   -1.21320830   -0.09807182
H    1.72728551    0.99084268   -2.61199556
C    2.02573687   -0.69717123   -1.36439740
H    2.29751698   -1.39106004   -2.14564531
C    1.71451235    0.59193780   -1.61248722
H    2.12945422   -2.20152091    0.05682913
C    1.64594503   -0.48520598    1.01871830
O    1.56111602   -0.97181638    2.12980905
N   -1.51404116   -0.86342391    0.73462494
H   -1.18895245   -1.40990029    1.52335563
C   -1.44612276   -1.48120625   -0.52065500
O   -1.05770141   -2.63475421   -0.62597673
N   -2.14856298    1.18953186   -0.09807182
H   -1.86442556   -1.01451913   -2.61199556
C   -2.16287692    0.67349479   -1.36439740
H   -2.43465703    1.36738360   -2.14564531
C   -1.85165239   -0.61561424   -1.61248722
H   -2.26659426    2.17784446    0.05682913
C   -1.78308508    0.46152954    1.01871830
O   -1.69825606    0.94813994    2.12980905
