11
Pyridine ...  Pyridine (pi-pi) Monomer A
N    1.57248145    0.25454916   -0.25648131
C    0.96935990   -0.90316032    0.04452614
H    1.61363891   -1.77218121    0.10234520
C   -0.39815811   -1.02881911    0.28096043
H   -0.81842477   -1.99173710    0.53356364
C   -1.19580525    0.10655779    0.19539732
H   -2.26068964    0.04953865    0.37344280
C   -0.58712829    1.31741239   -0.12010544
H   -1.16181223    2.22950003   -0.20046257
C    0.78854733    1.33970567   -0.33224053
H    1.28843202    2.26879436   -0.57852690
