11
Benzene ...  Pyridine (pi-pi) Monomer B
N   -2.85661667    0.38641572    5.18707811
C   -2.24173074    1.54408353    5.46714230
H   -2.88933479    2.39725498    5.62965439
C   -0.85951584    1.68493126    5.55731312
H   -0.42766708    2.64858138    5.78852941
C   -0.05856445    0.56795196    5.34309920
H    1.01900472    0.63833624    5.39793371
C   -0.67911635   -0.64070308    5.04943963
H   -0.10334184   -1.53632496    4.86536469
C   -2.06963063   -0.67874096    4.98399021
H   -2.57848355   -1.60719434    4.75514753
