29
Benzene ...  Neopentane Dimer
C    0.31195353    0.56102334    0.49669886
H    0.74213608    1.55336911    0.48156571
C    1.14218235   -0.55807461    0.53606185
H    2.21651131   -0.43425014    0.55235015
C    0.58780415   -1.83668704    0.55414435
H    1.23191239   -2.70484153    0.58522179
C   -0.79665772   -1.99637562    0.53296300
H   -1.22677442   -2.98844427    0.54863708
C   -1.62689297   -0.87747365    0.49416828
H   -2.70112211   -1.00134997    0.47981498
C   -1.07266525    0.40120590    0.47597397
H   -1.71697357    1.26940117    0.44591995
C    0.21200965    0.53932058    3.80570337
C    1.65825833    0.71810794    3.35074188
H    2.07411505    1.65138582    3.73416486
H    2.28165765   -0.10250769    3.70959575
H    1.71886747    0.73749923    2.26180767
C    0.15761829    0.50794944    5.33056869
H   -0.86817174    0.38052902    5.67965646
H    0.75302419   -0.31773743    5.72312242
H    0.54591277    1.43583407    5.75347427
C   -0.33737038   -0.77017139    3.24540735
H   -1.37224398   -0.92044643    3.55807894
H    0.24908620   -1.61914516    3.60121862
H   -0.30859055   -0.77062417    2.15509311
C   -0.62936313    1.70389227    3.28949790
H   -0.60782217    1.73992266    2.19949933
H   -1.66915228    1.60012270    3.60398038
H   -0.25371053    2.65458674    3.67160481
