24
Benzene ...  Benzene (TS) Dimer
C    0.72918867    1.11310122    0.32672825
H    1.30321590    2.01422234    0.15916027
C    1.37508737   -0.11936635    0.41277695
H    2.45051474   -0.17462400    0.31330720
C    0.63503981   -1.28055339    0.62938541
H    1.13633448   -2.23601747    0.70021716
C   -0.75098563   -1.20965430    0.75789034
H   -1.32452590   -2.11141283    0.92419891
C   -1.39703443    0.02267081    0.67308963
H   -2.47242537    0.07848826    0.77399799
C   -0.65689731    1.18429622    0.45833859
H   -1.15782845    2.14058713    0.39509608
C    0.04023332   -0.01982314    3.07687619
H    0.16235973    0.20566031    2.02644976
C   -1.05084825   -0.77472176    3.50421246
H   -1.77135278   -1.13123601    2.78051804
C   -1.21154823   -1.06884708    4.85716253
H   -2.05865582   -1.65481564    5.18741007
C   -0.27966567   -0.60779370    5.78565661
H   -0.40355916   -0.83575986    6.83566411
C    0.81191943    0.14730835    5.36041632
H    1.53503852    0.50514153    6.08079898
C    0.97072333    0.44079337    4.00692501
H    1.81798124    1.02686817    3.67687768
