11
Pyridine ...  Pyridine (CH-N) Monomer B
N    2.88673841   -0.94064096    0.04204299
C    4.08851722   -1.53381720    0.04412283
H    4.08329337   -2.61677965    0.06601199
C    5.29445346   -0.83885864    0.02012145
H    6.23089178   -1.37839382    0.02321545
C    5.26213585    0.55144582   -0.00762526
H    6.17751079    1.12669687   -0.02680677
C    4.02245552    1.18173195   -0.01010237
H    3.94268279    2.25929052   -0.03119093
C    2.86854195    0.40172232    0.01509130
H    1.88863155    0.86538491    0.01342845
