17
Pentane ...  Pentane Monomer B
C    2.53355772    0.29763975    4.38456986
H    2.56814221    0.89744645    3.47524431
H    2.56406103    0.98084633    5.23331468
H    3.43423841   -0.31385755    4.41477880
C    1.27173152   -0.55424752    4.42387411
H    1.26628781   -1.16397523    5.33037107
H    1.27060101   -1.25360126    3.58429305
C   -0.00004347    0.28185158    4.37825767
H   -0.00019840    0.98416156    5.21724215
H    0.00003342    0.89062800    3.46918804
C   -1.27180431   -0.55429040    4.42352921
H   -1.26642207   -1.16439985    5.32977931
H   -1.27069797   -1.25331329    3.58366556
C   -2.53352354    0.29775591    4.38455150
H   -2.56771684    0.89828958    3.47567475
H   -3.43432552   -0.31354244    4.41406468
H   -2.56406307    0.98034215    5.23381289
