17
Uracil ...  Neopentane Monomer B
C   -0.53267162   -0.02432506    4.47697299
C   -1.84941780    0.71696374    4.69184590
H   -2.55648920    0.09875756    5.24670824
H   -1.68991824    1.63714829    5.25603091
H   -2.30712758    0.97846076    3.73669224
C    0.08276500   -0.37776298    5.82825044
H    1.02592717   -0.91013629    5.69746860
H    0.27978595    0.52197876    6.41305258
H   -0.58852902   -1.01549999    6.40498718
C    0.43245266    0.86915276    3.70118390
H    1.38102314    0.35655806    3.53082990
H    0.63774286    1.78728921    4.25461027
H    0.01005727    1.14763937    2.73371946
C   -0.79398881   -1.30435945    3.68660810
H   -1.25772721   -1.08252575    2.72398346
H    0.13858749   -1.84275837    3.50697142
H   -1.46449662   -1.96617341    4.23679302
