15
Water ... Peptide Dimer
O   -0.39201845   -0.38471874    0.07607132
H   -0.91146085    0.41381204    0.17764877
H    0.52490382   -0.06848469    0.09051136
C    2.05149617   -2.26091762   -0.22781360
H    2.70145901   -3.12202950   -0.36072899
H    1.37052020   -2.18344556   -1.07167887
H    1.43847927   -2.39971361    0.65919476
C    2.80622825   -0.96290475   -0.09522009
O    2.22951280    0.11239011    0.06136865
N    4.15686137   -1.06040743   -0.15983806
H    4.55781300   -1.97094141   -0.28935316
C    5.02510348    0.09156303   -0.05039498
H    4.38860935    0.95986347    0.08438963
H    5.69069299    0.00010783    0.80569790
H    5.61956921    0.22098352   -0.95265417
