11
Pyridine ...  Pyridine (CH-N) Monomer B
N    2.34234171   -0.95509807    0.04277429
C    3.54412052   -1.54827431    0.04485413
H    3.53889667   -2.63123676    0.06674330
C    4.75005676   -0.85331575    0.02085275
H    5.68649509   -1.39285093    0.02394676
C    4.71773915    0.53698871   -0.00689396
H    5.63311409    1.11223976   -0.02607547
C    3.47805882    1.16727484   -0.00937106
H    3.39828609    2.24483342   -0.03045963
C    2.32414525    0.38726522    0.01582261
H    1.34423485    0.85092780    0.01415976
