7
Peptide ... MeNH2 Monomer B
N    2.46158082    0.26646613    0.29121364
H    2.86524714    0.80638566    1.04641373
H    2.87958469    0.63384738   -0.55443228
C    2.83388366   -1.14471668    0.44496639
H    2.40759626   -1.71574926   -0.37640906
H    3.90928230   -1.33140613    0.47074978
H    2.39941108   -1.52912369    1.36480239
