23
Benzene ...  Pyridine (TS) Dimer
C    0.84507720    1.05791869    0.69945490
H    1.50640601    1.90322178    0.83338235
C    1.37550931   -0.21745534    0.51116093
H    2.44718367   -0.36147258    0.50285232
C    0.52406810   -1.30704432    0.33319233
H    0.93572726   -2.29602641    0.18492305
C   -0.85771573   -1.12146341    0.34638409
H   -1.51838119   -1.96645805    0.20836325
C   -1.38804570    0.15363438    0.53761349
H   -2.45971752    0.29741587    0.55003229
C   -0.53661315    1.24342221    0.71273882
H   -0.94892427    2.23280628    0.85736635
N    0.02156487    0.32699535    6.89769015
C    0.17624869    1.26495696    5.95281327
H    0.31801952    2.27748296    6.31071499
C    0.16203942    0.99766719    4.58631383
H    0.29227948    1.79869299    3.87242842
C   -0.02229889   -0.31396249    4.16102340
H   -0.03886534   -0.55708116    3.10767547
C   -0.18414781   -1.29899682    5.12988249
H   -0.33069083   -2.33420779    4.85511097
C   -0.15494534   -0.93166372    6.47297199
H   -0.27854147   -1.67917769    7.24707299
