6
Benzene ...  MeOH (OH-pi) Monomer B
O   -0.16625886    0.18721669    6.27006422
H   -0.08015864    0.23708978    5.31287067
C   -1.06240946   -0.87039738    6.55311926
H   -1.15813015   -0.92713196    7.63405539
H   -2.05455904   -0.69869964    6.12932905
H   -0.69594914   -1.83343845    6.19020774
