9
Benzene ... AcNH2 (NH-pi) Monomer B
C    0.20133949    0.87608534    4.13097970
O    0.44782884    1.91951159    3.54374042
N   -0.10270776   -0.27892119    3.47981236
H   -0.07750745   -0.28593652    2.47317575
H   -0.25848424   -1.13441351    3.97551407
C    0.22418419    0.78119351    5.63939718
H    1.25589799    0.86540580    5.97447097
H   -0.19771972   -0.14544948    6.02042285
H   -0.32528048    1.62503982    6.04616768
