12
AcNH2 ... Uracil Monomer B
N    4.63474639    1.12404339   -0.11400723
H    5.12477584    0.24808621   -0.23194570
C    5.43837240    2.26688833    0.03647446
O    6.65393443    2.17126600    0.02128969
C    4.66578023    3.48220481    0.19961840
H    5.18754322    4.41539767    0.32265352
C    3.31661952    3.42052928    0.19394164
H    2.69621546    4.29688967    0.31161854
N    2.63153741    2.24824777    0.03937588
H    1.59874693    2.23918671    0.03853856
C    3.26242737    1.04377827   -0.12288416
O    2.66523864   -0.02013769   -0.26469165
