7
Peptide ... MeNH2 Monomer B
N    1.63728243    0.22256661    0.25911773
H    2.04094875    0.76248614    1.01431782
H    2.05528630    0.58994786   -0.58652819
C    2.00958527   -1.18861620    0.41287048
H    1.58329787   -1.75964879   -0.40850497
H    3.08498391   -1.37530565    0.43865388
H    1.57511269   -1.57302321    1.33270648
