8
AcOH ... AcOH Monomer B
C    3.64542026    1.11220748    0.27773514
O    2.94180189    0.13889299    0.03794754
O    3.17299393    2.31464287    0.56551361
H    2.17920539    2.28174463    0.55111311
C    5.14213271    1.06630473    0.27577075
H    5.47971227    0.06498554    0.03824525
H    5.52363125    1.77665767   -0.45369815
H    5.51364902    1.36899925    1.25182611
