29
Peptide ...  Pentane Dimer
C    1.37219093    1.01247736    0.97082468
H    0.95217623    2.01404955    1.03311725
H    1.94742170    0.92651560    0.05071776
H    2.05170208    0.85182517    1.80295247
C    0.32673706   -0.07764727    0.98819876
O    0.61882128   -1.25248130    1.17128126
N   -0.95002884    0.34488680    0.77391491
H   -1.10467156    1.32202550    0.60611216
C   -2.05985440   -0.57736895    0.68015349
H   -1.66935602   -1.56679601    0.89718425
H   -2.83459176   -0.33138032    1.40366139
H   -2.49097050   -0.57892483   -0.31993926
C    2.71834805    0.50311979    5.52905380
H    2.83518734    1.25753569    4.75030898
H    2.63223768    1.02800612    6.48070986
H    3.63043950   -0.09112212    5.55586181
C    1.49007583   -0.36026772    5.27150225
H    1.39550648   -1.10572172    6.06455309
H    1.60649596   -0.91373205    4.33765845
C    0.20753798    0.45834623    5.20620090
H    0.09596766    1.03608111    6.12928454
H    0.28677213    1.19116114    4.39654825
C   -1.03681830   -0.39198900    4.98932100
H   -1.12762027   -1.10647549    5.81073823
H   -0.90901130   -0.98092673    4.07910655
C   -2.30365680    0.44830250    4.89920628
H   -2.23674356    1.15535348    4.07143704
H   -3.18899902   -0.16771499    4.74537337
H   -2.45401284    1.02451359    5.81242587
