34
Neopentane ...  Pentane Dimer
C   -2.53038287   -0.41757533    0.68130643
H   -2.55988603   -0.98278998   -0.25015619
H   -2.55403625   -1.13386495    1.50265790
H   -3.43621355    0.18414376    0.73677133
C   -1.27615683    0.44363493    0.75002483
H   -1.27808384    1.02521785    1.67508548
H   -1.28033899    1.16855564   -0.06715806
C    0.00220470   -0.38071620    0.67899257
H    0.00782894   -1.11141304    1.49383122
H    0.00624866   -0.96052270   -0.24882046
C    1.26833347    0.46239635    0.74936913
H    1.26201985    1.04425029    1.67424645
H    1.26163488    1.18705711   -0.06803458
C    2.53496627   -0.38042469    0.68068636
H    2.57244024   -0.94571652   -0.25045186
H    3.43198117    0.23441492    0.73557772
H    2.56920771   -1.09581003    1.50245608
C   -0.00050899    0.05997894    5.10084302
C    0.00056275   -0.08015216    6.62057598
H   -0.88647327    0.38392388    7.05394539
H    0.00981425   -1.13093241    6.91358585
H    0.87922298    0.39951240    7.05421905
C   -1.23996433   -0.62167309    4.52694451
H   -1.26326354   -0.53271597    3.44011533
H   -1.25204996   -1.68294949    4.77995771
H   -2.15090805   -0.16938183    4.92202963
C    1.25209612   -0.59756187    4.52737269
H    1.27342291   -0.50927620    3.44040173
H    1.28522665   -1.65812271    4.78146501
H    2.15390835   -0.12691855    4.92179381
C   -0.01475687    1.53977143    4.72622175
H    0.86300913    2.05035845    5.12517688
H   -0.01528107    1.66622636    3.64257006
H   -0.90286281    2.03310514    5.12400989
