12
Uracil ... Uracil (BP) Monomer B
N    4.06414000   -1.08155113    0.00049887
H    4.51138378   -0.17497793    0.00088568
C    4.92018777   -2.19616892   -0.00100101
O    6.12963979   -2.04446450   -0.00175021
C    4.20596934   -3.45834245   -0.00150540
H    4.77255389   -4.37337321   -0.00264404
C    2.85580036   -3.46216033   -0.00054531
H    2.27883712   -4.37512509   -0.00086398
N    2.11780895   -2.31127949    0.00090511
H    1.09147269   -2.33272229    0.00158217
C    2.69057989   -1.06661445    0.00145575
O    2.04025900   -0.02539614    0.00269214
