34
Pentane ...  Pentane Dimer
C   -2.53330865   -0.29487907    0.71314876
H   -2.56362682   -0.97708181   -0.13642264
H   -2.56697835   -0.89587590    1.62173177
H   -3.43442611    0.31595713    0.68410447
C   -1.27188487    0.55765547    0.67435468
H   -1.27102630    1.25656571    1.51431940
H   -1.26663255    1.16789581   -0.23182653
C   -0.00013504   -0.27841822    0.71960315
H   -0.00015938   -0.88722952    1.62863709
H   -0.00036543   -0.98071418   -0.11940439
C    1.27189476    0.55738219    0.67406108
H    1.27097175    1.25663331    1.51370541
H    1.26663649    1.16718250   -0.23238692
C    2.53340376   -0.29494176    0.71328015
H    2.56391919   -0.97777410   -0.13577836
H    3.43430956    0.31625432    0.68359945
H    2.56755821   -0.89520887    1.62232865
C    2.53355724    0.29463171    4.53222529
H    2.56814173    0.89443840    3.62289974
H    2.56406055    0.97783828    5.38097011
H    3.43423793   -0.31686560    4.56243423
C    1.27173104   -0.55725556    4.57152954
H    1.26628733   -1.16698328    5.47802650
H    1.27060053   -1.25660931    3.73194848
C   -0.00004395    0.27884353    4.52591310
H   -0.00019888    0.98115351    5.36489758
H    0.00003294    0.88761995    3.61684347
C   -1.27180479   -0.55729844    4.57118464
H   -1.26642255   -1.16740789    5.47743475
H   -1.27069845   -1.25632134    3.73132099
C   -2.53352402    0.29474786    4.53220694
H   -2.56771732    0.89528153    3.62333018
H   -3.43432600   -0.31655049    4.56172012
H   -2.56406355    0.97733410    5.38146833
