12
Peptide ... Peptide Monomer B
C    2.16200617   -2.35904589    0.69580462
H    2.72023098   -3.26904912    0.48989662
H    1.23331432   -2.36557534    0.13147920
H    1.90278725   -2.33559919    1.75274562
C    2.92964212   -1.10463385    0.35956788
O    2.38445547   -0.00319704    0.30259549
N    4.25640033   -1.27344762    0.14581991
H    4.63272163   -2.20069331    0.22257724
C    5.14363851   -0.16698164   -0.14312862
H    4.52944613    0.72382813   -0.22295234
H    5.87105306   -0.02751591    0.65427468
H    5.66862881   -0.32696337   -1.08227096
