6
Benzene ...  MeOH (OH-pi) Monomer B
O    0.11170202    0.34226629    2.90114728
H    0.19780223    0.39213938    1.94395373
C   -0.78444858   -0.71534778    3.18420231
H   -0.88016928   -0.77208236    4.26513845
H   -1.77659817   -0.54365004    2.76041211
H   -0.41798826   -1.67838885    2.82129080
