18
MeNH2 ...  Pyridine Dimer
N   -0.54105920    0.02957620   -0.20899508
H    0.05555335   -0.78611810   -0.13029335
H   -1.46966940   -0.27470845    0.05314338
C   -0.07879927    1.04239036    0.73845886
H   -0.72015294    1.91941377    0.67198026
H   -0.05075819    0.72382293    1.78551453
H    0.92643072    1.35660379    0.46199919
N    2.58904753   -1.30769084    0.04750066
C    2.92748385   -0.49534677   -0.96421182
H    2.38481663   -0.63988475   -1.88959318
C    3.89881311    0.49678702   -0.86384481
H    4.12366555    1.12112731   -1.71669551
C    4.55965318    0.66632846    0.34841963
H    5.31750712    1.42856580    0.46480375
C    4.21952027   -0.16863406    1.40754258
H    4.70210867   -0.07817182    2.37024323
C    3.23573870   -1.13342307    1.20835920
H    2.94965437   -1.79717068    2.01496985
