8
Ethyne ...  AcOH (OH-pi) Monomer B
C    3.38050902   -0.88413026    0.64431651
O    3.12632997    0.07197199   -0.05452124
O    2.43260440   -1.65847049    1.21200311
H    1.57160502   -1.29117150    0.94423197
C    4.75614418   -1.36558009    0.99446742
H    5.49452999   -0.72803000    0.52361709
H    4.88235469   -1.35372536    2.07450274
H    4.87842132   -2.39342464    0.66123309
