12
Peptide ... MeNH2 Monomer A
C   -0.77857334   -0.46332064    2.49038768
H    0.22474462   -0.05095294    2.41348355
H   -0.72247994   -1.48709180    2.85458464
H   -1.35190757    0.11081693    3.21368365
C   -1.52050259   -0.45662769    1.17232500
O   -2.70083521   -0.78358573    1.08959682
N   -0.79195361   -0.06964048    0.10058937
H    0.19411165    0.14570790    0.20292464
C   -1.39779834   -0.05608245   -1.21131793
H   -2.31492801    0.52889121   -1.19970991
H   -0.69880422    0.38726130   -1.91536621
H   -1.65298232   -1.06152895   -1.54543495
