29
Uracil ...  Pentane Dimer
N   -0.20890478   -0.96458262    0.53476104
H   -0.22415099   -1.97310940    0.60508386
C   -1.44634208   -0.34458112    0.30665858
O   -2.46123675   -1.01079161    0.19789196
C   -1.35778219    1.10318559    0.22814378
H   -2.25657214    1.66773071    0.04984731
C   -0.16300320    1.70989257    0.38112632
H   -0.04629046    2.78244591    0.33334968
N    0.98545210    1.00082412    0.61120636
H    1.86755978    1.46692777    0.74478430
C    1.02702092   -0.37917011    0.71264723
O    2.04919670   -0.99739548    0.93725979
C    1.28205649    2.37528361    5.73028979
H    0.85120787    2.68633231    4.77750722
H    0.64782258    2.78071673    6.51853744
H    2.26493651    2.83573103    5.82341127
C    1.35507295    0.85641266    5.81980813
H    1.78545660    0.56684981    6.78109908
H    2.02966254    0.46525211    5.05468996
C   -0.00971224    0.19824601    5.66499137
H   -0.68095650    0.56712182    6.44661061
H   -0.45718311    0.50851103    4.71509114
C    0.04657670   -1.32244054    5.72462687
H    0.47018220   -1.62487095    6.68526305
H    0.73809844   -1.68431948    4.96012444
C   -1.32270622   -1.96431375    5.54085321
H   -1.76108522   -1.69085607    4.58066770
H   -1.26576743   -3.05108214    5.58491040
H   -2.01066900   -1.63596777    6.32008626
