8
AcOH ... AcOH Monomer B
C    3.22254262    1.11033619    0.27449893
O    2.51892425    0.13702170    0.03471133
O    2.75011628    2.31277157    0.56227740
H    1.75632774    2.27987334    0.54787689
C    4.71925506    1.06443344    0.27253453
H    5.05683463    0.06311425    0.03500904
H    5.10075361    1.77478638   -0.45693437
H    5.09077137    1.36712796    1.24858989
