11
Pyridine ...  Pyridine (pi-pi) Monomer B
N   -0.50364082   -1.49033600    3.58155983
C   -1.43611891   -0.52970654    3.65541099
H   -2.43890816   -0.86066134    3.89760385
C   -1.17411588    0.82136188    3.44603160
H   -1.97267363    1.54586732    3.52430270
C    0.12531146    1.21060316    3.13576320
H    0.36729601    2.24960165    2.95989194
C    1.10487076    0.22770501    3.05240173
H    2.12717200    0.47445076    2.80396475
C    0.74239104   -1.09743275    3.28559473
H    1.48625181   -1.88298738    3.22914613
