24
Benzene ...  Benzene (pi-pi) Dimer
C    0.71264532    1.12099570    0.06054078
H    1.35784165    1.98639917    0.12773717
C    1.25823573   -0.15925190    0.12423352
H    2.32495428   -0.28709988    0.24674303
C    0.42688496   -1.27452666    0.04265043
H    0.85044465   -2.26843268    0.09474995
C   -0.94957784   -1.11007406   -0.10031360
H   -1.59445570   -1.97627370   -0.16371348
C   -1.49552564    0.17105056   -0.16154602
H   -2.56378279    0.29922115   -0.27370311
C   -0.66382760    1.28664289   -0.08340143
H   -1.08690070    2.28100020   -0.13288613
C    2.25369932    1.10726200    4.47109521
H    2.89854444    1.97344574    4.53484593
C    2.79965244   -0.17388910    4.53261494
H    3.86785933   -0.30203615    4.64535916
C    1.96800296   -1.28948920    4.45396452
H    2.39108467   -2.28384164    4.50361818
C    0.59160140   -1.12385417    4.30924777
H   -0.05350120   -1.98926442    4.24161513
C    0.04604153    0.15637857    4.24528194
H   -1.02058650    0.28420779    4.12210318
C    0.87731848    1.27165934    4.32735288
H    0.45379360    2.26556437    4.27498395
