29
Peptide ...  Pentane Dimer
C    1.37219093    1.01247736    0.97082468
H    0.95217623    2.01404955    1.03311725
H    1.94742170    0.92651560    0.05071776
H    2.05170208    0.85182517    1.80295247
C    0.32673706   -0.07764727    0.98819876
O    0.61882128   -1.25248130    1.17128126
N   -0.95002884    0.34488680    0.77391491
H   -1.10467156    1.32202550    0.60611216
C   -2.05985440   -0.57736895    0.68015349
H   -1.66935602   -1.56679601    0.89718425
H   -2.83459176   -0.33138032    1.40366139
H   -2.49097050   -0.57892483   -0.31993926
C    2.67565221    0.47323520    5.02890421
H    2.79249149    1.22765109    4.25015939
H    2.58954184    0.99812152    5.98056027
H    3.58774365   -0.12100671    5.05571222
C    1.44737998   -0.39015231    4.77135266
H    1.35281063   -1.13560631    5.56440350
H    1.56380011   -0.94361664    3.83750886
C    0.16484214    0.42846164    4.70605131
H    0.05327182    1.00619652    5.62913495
H    0.24407629    1.16127654    3.89639866
C   -1.07951415   -0.42187360    4.48917141
H   -1.17031612   -1.13636008    5.31058864
H   -0.95170715   -1.01081133    3.57895696
C   -2.34635265    0.41841791    4.39905669
H   -2.27943941    1.12546889    3.57128745
H   -3.23169486   -0.19759958    4.24522378
H   -2.49670869    0.99462900    5.31227628
