29
Benzene ...  Neopentane Dimer
C    0.31195353    0.56102334    0.49669886
H    0.74213608    1.55336911    0.48156571
C    1.14218235   -0.55807461    0.53606185
H    2.21651131   -0.43425014    0.55235015
C    0.58780415   -1.83668704    0.55414435
H    1.23191239   -2.70484153    0.58522179
C   -0.79665772   -1.99637562    0.53296300
H   -1.22677442   -2.98844427    0.54863708
C   -1.62689297   -0.87747365    0.49416828
H   -2.70112211   -1.00134997    0.47981498
C   -1.07266525    0.40120590    0.47597397
H   -1.71697357    1.26940117    0.44591995
C    0.17786019    0.51203779    4.65158805
C    1.62410887    0.69082515    4.19662656
H    2.03996559    1.62410303    4.58004954
H    2.24750819   -0.12979048    4.55548043
H    1.68471801    0.71021644    3.10769234
C    0.12346883    0.48066665    6.17645337
H   -0.90232120    0.35324623    6.52554114
H    0.71887473   -0.34502021    6.56900710
H    0.51176331    1.40855128    6.59935895
C   -0.37151984   -0.79745418    4.09129203
H   -1.40639344   -0.94772922    4.40396362
H    0.21493674   -1.64642794    4.44710330
H   -0.34274001   -0.79790696    3.00097779
C   -0.66351259    1.67660948    4.13538257
H   -0.64197163    1.71263987    3.04538401
H   -1.70330174    1.57283991    4.44986506
H   -0.28785999    2.62730395    4.51748948
