14
MeNH2 ... MeNH2 Dimer
N   -0.63864138    0.47091637    0.04456848
H    0.18995436   -0.11393716   -0.00577361
H   -1.30046894    0.08125680   -0.61366848
C   -1.19865882    0.39139858    1.39194660
H   -2.09273777    1.00924471    1.45316749
H   -1.46274551   -0.61584367    1.72945219
H   -0.48027554    0.79867491    2.10108731
N    2.20664297   -0.42579209    0.17939266
H    2.50291164   -0.15125435   -0.74859259
H    2.83019264   -1.17348240    0.45458752
C    2.36687294    0.70941851    1.09306796
H    2.09668264    0.39472273    2.09872107
H    3.37428326    1.13119507    1.13003970
H    1.67433256    1.49519399    0.80041072
