11
MeOH ... Pyridine Monomer B
N    2.39104968    0.00991597   -0.00169001
C    3.08741807   -0.01451936   -1.14640962
H    2.50293947    0.00870418   -2.05738506
C    4.47705513   -0.06426222   -1.19509487
H    4.98440748   -0.08155426   -2.14887759
C    5.18742836   -0.08997484    0.00051816
H    6.26776436   -0.12773959    0.00136746
C    4.47518091   -0.06495373    1.19505801
H    4.98097964   -0.08277806    2.14954371
C    3.08562726   -0.01520405    1.14410393
H    2.49962148    0.00747038    2.05422261
