17
Pyridine ...  Ethene Dimer
N    1.38138219   -0.00023348    0.13146374
C    0.67935079   -1.14023946    0.09207966
H    1.25871960   -2.05496223    0.12588361
C   -0.70972232   -1.19311407    0.00666426
H   -1.21408768   -2.14856163   -0.02530851
C   -1.42161357    0.00013343   -0.04081690
H   -2.50069615    0.00025757   -0.10916973
C   -0.70940120    1.19317538    0.00652198
H   -1.21351163    2.14874784   -0.02552831
C    0.67965167    1.13995623    0.09189303
H    1.25926073    2.05451090    0.12550248
C    0.02203906    0.66645114    3.75778574
H    0.93251306    1.22593686    3.59867090
H   -0.88750844    1.22885537    3.91474624
C    0.02237175   -0.66623616    3.75791798
H    0.93310744   -1.22531865    3.59890755
H   -0.88691635   -1.22906093    3.91500713
