17
Peptide ...  Pentane Monomer B
C    2.64335521    0.45062919    4.65056934
H    2.76019450    1.20504509    3.87182451
H    2.55724484    0.97551552    5.60222539
H    3.55544666   -0.14361271    4.67737735
C    1.41508299   -0.41275832    4.39301779
H    1.32051364   -1.15821232    5.18606862
H    1.53150312   -0.96622264    3.45917399
C    0.13254514    0.40585563    4.32771644
H    0.02097482    0.98359052    5.25080008
H    0.21177929    1.13867054    3.51806378
C   -1.11181115   -0.44447960    4.11083654
H   -1.20261311   -1.15896609    4.93225376
H   -0.98400414   -1.03341733    3.20062209
C   -2.37864964    0.39581190    4.02072181
H   -2.31173640    1.10286289    3.19295258
H   -3.26399186   -0.22020559    3.86688891
H   -2.52900568    0.97202299    4.93394141
