8
Pentane ...  AcOH Monomer B
C   -0.52183362   -0.29779130    4.31723893
O   -0.94444757   -1.41297154    4.12009235
O   -1.33552598    0.76117422    4.54982841
H   -2.23628809    0.40679368    4.50929267
C    0.91843344    0.11187478    4.33444431
H    1.54425650   -0.75830616    4.17628916
H    1.09447085    0.84614842    3.55131973
H    1.15574468    0.58117574    5.28624670
