15
Cyclopentane ...  Neopentane Monomer A
C    0.79991408   -1.02205164    0.68773696
H    0.85355588   -1.12205101   -0.39801435
H    1.49140210   -1.74416936    1.11972040
C    1.11688700    0.42495279    1.09966205
H    1.83814230    0.89014504    0.43045256
H    1.55556959    0.43982464    2.09708356
C   -0.24455916    1.16568959    1.10297714
H   -0.25807760    2.00086313    0.40532333
H   -0.44880450    1.57699582    2.09098447
C   -1.29871418    0.10381191    0.73930899
H   -1.47356078    0.10524338   -0.33800545
H   -2.25673428    0.27804118    1.22715843
C   -0.64687993   -1.22006836    1.13630660
H   -1.12443918   -2.08762702    0.68299327
H   -0.68601864   -1.34528332    2.22022006
