24
Benzene ...  Benzene (TS) Dimer
C    0.72918867    1.11310122    0.32672825
H    1.30321590    2.01422234    0.15916027
C    1.37508737   -0.11936635    0.41277695
H    2.45051474   -0.17462400    0.31330720
C    0.63503981   -1.28055339    0.62938541
H    1.13633448   -2.23601747    0.70021716
C   -0.75098563   -1.20965430    0.75789034
H   -1.32452590   -2.11141283    0.92419891
C   -1.39703443    0.02267081    0.67308963
H   -2.47242537    0.07848826    0.77399799
C   -0.65689731    1.18429622    0.45833859
H   -1.15782845    2.14058713    0.39509608
C    0.49632381    0.64846436    6.98106825
H    0.61845022    0.87394781    5.93064182
C   -0.59475776   -0.10643425    7.40840452
H   -1.31526229   -0.46294851    6.68471010
C   -0.75545774   -0.40055958    8.76135459
H   -1.60256533   -0.98652814    9.09160213
C    0.17642482    0.06049380    9.68984867
H    0.05253132   -0.16747236    10.73985617
C    1.26800992    0.81559586    9.26460838
H    1.99112900    1.17342904    9.98499104
C    1.42681381    1.10908088    7.91111707
H    2.27407173    1.69515567    7.58106974
