6
Benzene ...  MeOH (OH-pi) Monomer B
O    0.02468498    0.29372724    3.95580351
H    0.11078520    0.34360033    2.99860997
C   -0.87146562   -0.76388683    4.23885855
H   -0.96718631   -0.82062141    5.31979469
H   -1.86361521   -0.59218909    3.81506835
H   -0.50500530   -1.72692790    3.87594703
