7
Water ... MeNH2 Monomer B
N    2.18400022    0.10121073    0.00561524
H    2.47936465   -0.45142725   -0.78917562
H    2.49408071   -0.40951036    0.82247474
C    2.84333549    1.40957469   -0.03462639
H    2.53279307    1.99129965    0.82988902
H    3.93464478    1.37027972   -0.04358206
H    2.51662322    1.94549216   -0.92245021
