8
AcOH ... AcOH Monomer B
C    2.96881603    1.10921341    0.27255720
O    2.26519766    0.13589892    0.03276959
O    2.49638969    2.31164880    0.56033567
H    1.50260115    2.27875057    0.54593516
C    4.46552848    1.06331066    0.27059280
H    4.80310804    0.06199147    0.03306731
H    4.84702702    1.77366360   -0.45887610
H    4.83704479    1.36600518    1.24664816
