8
Benzene ...  AcOH (OH-pi) Monomer B
C   -0.10864318    0.51179719    4.51186324
O   -0.57683277    1.56124381    4.13260286
O    0.29456940   -0.46576608    3.67257798
H    0.12586458   -0.13985249    2.77117273
C    0.10131112    0.11481010    5.94326903
H   -0.20865503    0.92414668    6.59325792
H   -0.47476961   -0.78181387    6.16022015
H    1.14980854   -0.12132199    6.10828762
