22
Pyridine ...  Pyridine (TS) Dimer
N    1.32276272   -0.01037598    1.01918373
C    0.65128601   -1.14899203    0.79680119
H    1.20041842   -2.06552808    0.97367282
C   -0.67268130   -1.19471172    0.36665693
H   -1.15719362   -2.14732141    0.20646407
C   -1.34719675    0.00313399    0.15214401
H   -2.37535653    0.00840542   -0.18229302
C   -0.66455797    1.19409062    0.37900199
H   -1.14262633    2.15155765    0.22872051
C    0.65889576    1.13497854    0.80885987
H    1.21410272    2.04591045    0.99543831
N    0.53878103    0.00305915    6.48086466
C    1.40944904   -0.00255365    5.46145163
H    2.45730562   -0.00130512    5.73575442
C    1.03606331   -0.00962141    4.11962355
H    1.78352397   -0.01378543    3.33852391
C   -0.31998525   -0.01103547    3.80720809
H   -0.64971393   -0.01649095    2.77692664
C   -1.23808851   -0.00532039    4.85237770
H   -2.30253855   -0.00616977    4.66364192
C   -0.76248471    0.00159727    6.16133655
H   -1.45466837    0.00618040    6.99452776
