17
Uracil ...  Neopentane Monomer B
C   -0.63859211   -0.03060008    4.77358591
C   -1.95533830    0.71068872    4.98845882
H   -2.66240970    0.09248253    5.54332116
H   -1.79583874    1.63087326    5.55264383
H   -2.41304807    0.97218574    4.03330516
C   -0.02315550   -0.38403801    6.12486335
H    0.92000668   -0.91641131    5.99408152
H    0.17386546    0.51570373    6.70966550
H   -0.69444952   -1.02177501    6.70160010
C    0.32653216    0.86287774    3.99779682
H    1.27510264    0.35028303    3.82744282
H    0.53182236    1.78101419    4.55122319
H   -0.09586323    1.14136435    3.03033238
C   -0.89990931   -1.31063448    3.98322102
H   -1.36364771   -1.08880077    3.02059638
H    0.03266699   -1.84903340    3.80358434
H   -1.57041711   -1.97244844    4.53340594
