12
AcOH ... Uracil Monomer B
N    4.62326136    1.09891766    0.18124266
H    5.01646647    0.18352743    0.00952323
C    5.54478926    2.14703328    0.36269577
O    6.74193565    1.92873747    0.30981581
C    4.90572319    3.42649566    0.60330292
H    5.52525796    4.29342054    0.75478019
C    3.55863899    3.50648581    0.63268416
H    3.03579880    4.43493281    0.80798236
N    2.75490824    2.41580383    0.44227813
H    1.73085641    2.48575152    0.46606839
C    3.25484073    1.16558104    0.20810590
O    2.54280828    0.17607616    0.03463572
