17
Neopentane ...  Neopentane Monomer B
C   -0.24286035    0.04489996    5.05931405
C    1.17995210   -0.42406604    4.76591451
H    1.36439130   -0.46339519    3.69139404
H    1.91138625    0.25360679    5.20865008
H    1.35221577   -1.42107208    5.17403508
C   -0.44925716    1.44146149    4.47848357
H   -1.46122026    1.79844694    4.67533110
H    0.25166143    2.15253296    4.91820534
H   -0.29614795    1.44165810    3.39834122
C   -0.46315484    0.08507618    6.56916768
H   -1.47437100    0.41935316    6.80524087
H    0.23935761    0.77002521    7.04600590
H   -0.32259175   -0.90344416    7.00861942
C   -1.23932307   -0.92287770    4.42616765
H   -1.11039706   -1.92985308    4.82574663
H   -2.26521217   -0.60910484    4.62455551
H   -1.10461871   -0.96985209    3.34459099
