20
Benzene ...  AcOH Dimer
C    0.60678496    1.33042185    0.31643451
H    1.24649846    2.20226434    0.33035231
C    1.11808466    0.08724886    0.68511652
H    2.15005753   -0.00388678    0.99375824
C    0.29290229   -1.03608737    0.66910727
H    0.68849686   -2.00096149    0.95537797
C   -1.04283174   -0.91671112    0.28818964
H   -1.68270956   -1.78848825    0.27934903
C   -1.55358838    0.32734899   -0.07994317
H   -2.58923495    0.42028908   -0.37734619
C   -0.72804164    1.45084316   -0.06684834
H   -1.12362379    2.41565865   -0.35386143
C    0.45275032   -0.32122380    3.72667484
O    1.64824299   -0.15727305    3.80319062
O   -0.12675135   -1.53262876    3.92611320
H    0.60769951   -2.13373725    4.11915132
C   -0.56913391    0.72270772    3.40599366
H   -0.09083949    1.69365407    3.35917089
H   -1.02193401    0.48951153    2.44328562
H   -1.35398492    0.71717122    4.15849314
