11
Pyridine ...  Pyridine (pi-pi) Monomer B
N   -0.40549624   -1.40705812    2.72487468
C   -1.33797433   -0.44642866    2.79872583
H   -2.34076358   -0.77738346    3.04091870
C   -1.07597129    0.90463976    2.58934645
H   -1.87452905    1.62914520    2.66761755
C    0.22345604    1.29388104    2.27907804
H    0.46544060    2.33287953    2.10320679
C    1.20301535    0.31098289    2.19571658
H    2.22531659    0.55772863    1.94727960
C    0.84053563   -1.01415487    2.42890957
H    1.58439639   -1.79970950    2.37246098
