19
Benzene ...  MeNH2 (NH-pi) Dimer
C    0.69231523    1.08829204    0.32484124
H    1.28194880    1.99194678    0.25251578
C    1.31818722   -0.15687008    0.28689607
H    2.39314337   -0.21947636    0.18840681
C    0.55801841   -1.32195045    0.38139986
H    1.04391922   -2.28757380    0.35761542
C   -0.82755236   -1.24142187    0.51168501
H   -1.41670095   -2.14525152    0.58533927
C   -1.45341138    0.00367145    0.54838107
H   -2.52823255    0.06570272    0.64984254
C   -0.69346094    1.16840108    0.45622907
H   -1.17873534    2.13440989    0.48572685
N    0.28838250   -0.21039271    3.72326229
H    0.42300085   -0.16635221    2.72019093
H    0.42987507    0.73475403    4.05573456
C   -1.08771698   -0.61677612    4.00069808
H   -1.24559355   -0.64532313    5.07725362
H   -1.85901917    0.02360467    3.56057908
H   -1.24240896   -1.62634392    3.62507638
