9
AcNH2 ... AcNH2 Monomer B
C    2.60850299    1.06033775    0.12370804
O    2.02408122    0.08631732   -0.35602292
N    1.96441542    2.14508098    0.59155460
H    0.94431005    2.18951876    0.55725328
H    2.48243949    2.91304218    0.97167525
C    4.11550217    1.08462213    0.20893313
H    4.50737323    1.98427165    0.67611714
H    4.51905836    0.99707710   -0.79684718
H    4.44328093    0.21404723    0.77111347
