8
Ethyne ...  AcOH (OH-pi) Monomer B
C    2.44195894   -0.46698691    0.33772165
O    2.18777988    0.48911534   -0.36111610
O    1.49405432   -1.24132713    0.90540825
H    0.63305493   -0.87402815    0.63763711
C    3.81759409   -0.94843674    0.68787256
H    4.55597991   -0.31088665    0.21702223
H    3.94380461   -0.93658201    1.76790788
H    3.93987124   -1.97628128    0.35463823
