17
Peptide ...  Pentane Monomer B
C    2.67565221    0.47323520    5.02890421
H    2.79249149    1.22765109    4.25015939
H    2.58954184    0.99812152    5.98056027
H    3.58774365   -0.12100671    5.05571222
C    1.44737998   -0.39015231    4.77135266
H    1.35281063   -1.13560631    5.56440350
H    1.56380011   -0.94361664    3.83750886
C    0.16484214    0.42846164    4.70605131
H    0.05327182    1.00619652    5.62913495
H    0.24407629    1.16127654    3.89639866
C   -1.07951415   -0.42187360    4.48917141
H   -1.17031612   -1.13636008    5.31058864
H   -0.95170715   -1.01081133    3.57895696
C   -2.34635265    0.41841791    4.39905669
H   -2.27943941    1.12546889    3.57128745
H   -3.23169486   -0.19759958    4.24522378
H   -2.49670869    0.99462900    5.31227628
