30
Cyclopentane ...  Cyclopentane Dimer
C    0.95688019   -0.89184563    1.14195000
H    1.50456597   -1.27835762    0.28342019
H    1.42138447   -1.31477793    2.03102546
C    0.99094943    0.65850830    1.14550384
H    1.51059446    1.02309646    0.25994788
H    1.51625823    1.05981813    2.01053703
C   -0.47945194    1.10231879    1.10387910
H   -0.61626861    2.06487722    0.61356737
H   -0.87474223    1.18907144    2.11806960
C   -1.18210650   -0.05279656    0.39334575
H   -0.94888216   -0.02683030   -0.67380459
H   -2.26566452   -0.03356474    0.50127403
C   -0.53065958   -1.27488954    1.03930959
H   -0.69039061   -2.19702093    0.48299221
H   -0.95084939   -1.41541197    2.03674782
C   -1.13516171   -0.39030391    4.91093278
H   -1.46829621   -0.15360530    3.89834842
H   -1.93995011   -0.93340238    5.40391929
C    0.17844474   -1.18584883    4.86317158
H    0.22838968   -1.84359152    3.99703776
H    0.25873236   -1.81720646    5.74755688
C    1.30775996   -0.12314300    4.86376768
H    1.92902492   -0.18382185    3.97189406
H    1.96516945   -0.27302604    5.71917285
C    0.59758659    1.23852575    4.97163451
H    0.41772342    1.64701753    3.97563539
H    1.17797055    1.97292925    5.52760778
C   -0.74446587    0.90405331    5.62144637
H   -1.48413443    1.69656508    5.51656507
H   -0.60442594    0.71241326    6.68799533
