11
MeOH ... Pyridine Monomer B
N    2.48854243    0.00456445   -0.00174189
C    3.18491082   -0.01987088   -1.14646150
H    2.60043222    0.00335266   -2.05743694
C    4.57454788   -0.06961374   -1.19514675
H    5.08190023   -0.08690577   -2.14892947
C    5.28492111   -0.09532636    0.00046628
H    6.36525711   -0.13309111    0.00131557
C    4.57267366   -0.07030525    1.19500613
H    5.07847239   -0.08812958    2.14949182
C    3.18312002   -0.02055556    1.14405205
H    2.59711423    0.00211886    2.05417073
