18
Uracil ...  Ethene Dimer
N   -0.05087365   -0.98008127    0.03396219
H   -0.05322205   -1.99069374    0.04982167
C   -1.30881316   -0.36187638    0.00402596
O   -2.32722000   -1.03255492   -0.00582886
C   -1.23681849    1.08804829   -0.01222440
H   -2.15273897    1.65146044   -0.05477443
C   -0.03519433    1.69783584    0.03370483
H    0.07036636    2.77247575    0.03188224
N    1.13452913    0.99028251    0.09184461
H    2.02372032    1.45677218    0.15569277
C    1.19318599   -0.39183287    0.11577512
O    2.23639797   -1.01118826    0.19418562
C    0.74654845    0.05119586    4.16474862
H    1.26366619   -0.81979204    3.78752202
H    1.35215945    0.83818990    4.59206295
C   -0.58222805    0.15178631    4.11550169
H   -1.19423094   -0.63569328    3.69860097
H   -1.09405304    1.02285590    4.49950145
