23
Pyridine ...  Uracil (pi-pi) Dimer
N    1.21075533    0.02867578    0.32971111
C    0.61193497   -1.15844901    0.15345176
H    1.25147791   -2.02952340    0.21929295
C   -0.75131399   -1.30864956   -0.08883407
H   -1.17041577   -2.29686932   -0.21338320
C   -1.54786767   -0.16994027   -0.15646691
H   -2.61101275   -0.24595469   -0.33875574
C   -0.94362237    1.07063612    0.01982310
H   -1.51881431    1.98450028   -0.01164403
C    0.42771857    1.11610863    0.25734879
H    0.92469451    2.06805173    0.39754798
N   -0.71483468   -0.28490406    3.27883582
H   -1.60972370   -0.71676755    3.09423234
C   -0.71457980    1.11290573    3.37184683
O   -1.75446287    1.74110554    3.25699670
C    0.60491496    1.67198708    3.59940989
H    0.70623132    2.73920925    3.69527807
C    1.67478855    0.85329478    3.67092995
H    2.67866759    1.22195947    3.81935648
N    1.55672741   -0.50399849    3.55837528
H    2.37016340   -1.09618584    3.55020764
C    0.35628047   -1.15123092    3.33199359
O    0.26414322   -2.35664899    3.19841431
