7
Water ... MeNH2 Monomer B
N    2.48555671    0.11310906    0.00705398
H    2.78092114   -0.43952891   -0.78773688
H    2.79563720   -0.39761203    0.82391348
C    3.14489199    1.42147303   -0.03318765
H    2.83434956    2.00319799    0.83132777
H    4.23620127    1.38217806   -0.04214332
H    2.81817971    1.95739050   -0.92101146
