12
Benzene ...  Benzene (pi-pi) Monomer B
C    1.58354623    1.11354979    2.55397736
H    2.22839135    1.97973353    2.61772808
C    2.12949936   -0.16760131    2.61549709
H    3.19770624   -0.29574836    2.72824131
C    1.29784988   -1.28320141    2.53684667
H    1.72093158   -2.27755385    2.58650033
C   -0.07855168   -1.11756638    2.39212992
H   -0.72365428   -1.98297663    2.32449729
C   -0.62411156    0.16266636    2.32816409
H   -1.69073959    0.29049558    2.20498533
C    0.20716539    1.27794713    2.41023503
H   -0.21635949    2.27185216    2.35786610
