17
Ethene ...  Pentane Monomer B
C   -2.53271908   -0.35816653    3.59937659
H   -2.56221252   -0.97118731    2.69818671
H   -2.56885303   -1.03238715    4.45499360
H   -3.43389043    0.25284990    3.61662253
C   -1.27128259    0.49450889    3.63519453
H   -1.27168846    1.11460246    4.53458847
H   -1.26289424    1.18141720    2.78613411
C   -0.00000833   -0.34304869    3.60825132
H   -0.00016239   -1.02972139    4.46008333
H    0.00013274   -0.97062652    2.71160883
C    1.27121208    0.49453774    3.63565586
H    1.27148508    1.11434849    4.53514127
H    1.26301725    1.18161239    2.78674823
C    2.53266346   -0.35818677    3.59983167
H    2.56228693   -0.97104327    2.69852249
H    3.43384157    0.25274940    3.61740971
H    2.56858182   -1.03264285    4.45533738
