11
Pyridine ...  Uracil (pi-pi) Monomer A
N    1.21075533    0.02867578    0.32971111
C    0.61193497   -1.15844901    0.15345176
H    1.25147791   -2.02952340    0.21929295
C   -0.75131399   -1.30864956   -0.08883407
H   -1.17041577   -2.29686932   -0.21338320
C   -1.54786767   -0.16994027   -0.15646691
H   -2.61101275   -0.24595469   -0.33875574
C   -0.94362237    1.07063612    0.01982310
H   -1.51881431    1.98450028   -0.01164403
C    0.42771857    1.11610863    0.25734879
H    0.92469451    2.06805173    0.39754798
