19
MeNH2 ... Peptide Dimer
N   -0.56970824    0.81437245    0.10109775
H    0.13087774    0.56141065   -0.58761455
H   -1.46125215    0.52691480   -0.28042996
C   -0.30551437    0.06571030    1.32879173
H   -1.05714948    0.31427017    2.07595940
H   -0.28802353   -1.02229248    1.21484626
H    0.66045772    0.36850913    1.73024224
C    2.29387868    2.68747033   -0.15439800
H    2.41849715    3.09864706   -1.15344233
H    2.80045005    3.32846288    0.56338652
H    1.22746692    2.66094080    0.06402343
C    2.80587037    1.26967265   -0.15210397
O    2.34589048    0.40393623   -0.89127858
N    3.79235334    0.99664030    0.74022674
H    4.19211436    1.75157308    1.26557950
C    4.38079868   -0.32295024    0.81772631
H    3.59262206   -1.06428039    0.72470571
H    5.10205846   -0.49494561    0.01918192
H    4.87545219   -0.43881843    1.77766584
