8
AcOH ... AcOH Monomer B
C    2.71508944    1.10809064    0.27061547
O    2.01147108    0.13477615    0.03082786
O    2.24266311    2.31052602    0.55839394
H    1.24887457    2.27762779    0.54399343
C    4.21180189    1.06218789    0.26865107
H    4.54938145    0.06086870    0.03112558
H    4.59330043    1.77254083   -0.46081783
H    4.58331820    1.36488241    1.24470643
