17
MeOH ... Pyridine Dimer
O   -0.62765177    0.08746727    0.00147128
H    0.34360203    0.12230333   -0.00060045
C   -0.97793123   -1.27855601    0.00123841
H   -2.06339209   -1.34204332    0.00500898
H   -0.61488369   -1.80637584   -0.88538395
H   -0.60864033   -1.80823682    0.88417273
N    3.26848445   -0.03824769   -0.00215695
C    3.96485284   -0.06268302   -1.14687655
H    3.38037424   -0.03945949   -2.05785199
C    5.35448990   -0.11242588   -1.19556180
H    5.86184225   -0.12971792   -2.14934453
C    6.06486313   -0.13813850    0.00005122
H    7.14519913   -0.17590325    0.00090052
C    5.35261568   -0.11311739    1.19459108
H    5.85841441   -0.13094172    2.14907677
C    3.96306203   -0.06336771    1.14363699
H    3.37705625   -0.04069328    2.05375568
