18
Benzene ...  Ethene Dimer
C    0.83551718    1.11516693    0.02140131
H    1.48432398    1.98060858    0.01953430
C    1.38327497   -0.16614721    0.02376531
H    2.45714902   -0.29520468    0.02277108
C    0.54755466   -1.28131632    0.02168563
H    0.97293610   -2.27580453    0.01977853
C   -0.83552313   -1.11516159    0.02139907
H   -1.48433419   -1.98060639    0.01953009
C   -1.38328358    0.16615413    0.02375775
H   -2.45715618    0.29520906    0.02275707
C   -0.54756577    1.28132347    0.02168025
H   -0.97294284    2.27580548    0.01976873
C    0.65577848   -0.11678975    2.40380160
H    1.04723926   -1.12390858    2.39933333
H    1.37085227    0.69327422    2.39930001
C   -0.65577803    0.11679288    2.40381049
H   -1.37084998   -0.69327164    2.39931440
H   -1.04724114    1.12391178    2.39935229
