18
Uracil ...  Ethene Dimer
N   -0.05087365   -0.98008127    0.03396219
H   -0.05322205   -1.99069374    0.04982167
C   -1.30881316   -0.36187638    0.00402596
O   -2.32722000   -1.03255492   -0.00582886
C   -1.23681849    1.08804829   -0.01222440
H   -2.15273897    1.65146044   -0.05477443
C   -0.03519433    1.69783584    0.03370483
H    0.07036636    2.77247575    0.03188224
N    1.13452913    0.99028251    0.09184461
H    2.02372032    1.45677218    0.15569277
C    1.19318599   -0.39183287    0.11577512
O    2.23639797   -1.01118826    0.19418562
C    0.76653178    0.07662824    4.91048837
H    1.28364951   -0.79435966    4.53326177
H    1.37214278    0.86362228    5.33780270
C   -0.56224472    0.17721869    4.86124144
H   -1.17424761   -0.61026090    4.44434072
H   -1.07406972    1.04828828    5.24524121
