12
Uracil ... Uracil (BP) Monomer B
N    4.59609199   -1.10927164    0.00050160
H    5.04333577   -0.20269844    0.00088841
C    5.45213976   -2.22388942   -0.00099828
O    6.66159178   -2.07218501   -0.00174748
C    4.73792133   -3.48606296   -0.00150267
H    5.30450587   -4.40109371   -0.00264131
C    3.38775235   -3.48988084   -0.00054258
H    2.81078911   -4.40284560   -0.00086126
N    2.64976094   -2.33900000    0.00090783
H    1.62342468   -2.36044279    0.00158490
C    3.22253188   -1.09433496    0.00145848
O    2.57221099   -0.05311665    0.00269487
