17
MeOH ... Pyridine Dimer
O   -0.62765177    0.08746727    0.00147128
H    0.34360203    0.12230333   -0.00060045
C   -0.97793123   -1.27855601    0.00123841
H   -2.06339209   -1.34204332    0.00500898
H   -0.61488369   -1.80637584   -0.88538395
H   -0.60864033   -1.80823682    0.88417273
N    2.09857142    0.02597053   -0.00153437
C    2.79493981    0.00153520   -1.14625397
H    2.21046121    0.02475873   -2.05722941
C    4.18457687   -0.04820767   -1.19493922
H    4.69192922   -0.06549970   -2.14872195
C    4.89495010   -0.07392029    0.00067380
H    5.97528611   -0.11168504    0.00152310
C    4.18270265   -0.04889918    1.19521366
H    4.68850138   -0.06672351    2.14969935
C    2.79314901    0.00085051    1.14425957
H    2.20714322    0.02352494    2.05437826
