17
Neopentane ...  Pentane Monomer A
C   -2.53038287   -0.41757533    0.68130643
H   -2.55988603   -0.98278998   -0.25015619
H   -2.55403625   -1.13386495    1.50265790
H   -3.43621355    0.18414376    0.73677133
C   -1.27615683    0.44363493    0.75002483
H   -1.27808384    1.02521785    1.67508548
H   -1.28033899    1.16855564   -0.06715806
C    0.00220470   -0.38071620    0.67899257
H    0.00782894   -1.11141304    1.49383122
H    0.00624866   -0.96052270   -0.24882046
C    1.26833347    0.46239635    0.74936913
H    1.26201985    1.04425029    1.67424645
H    1.26163488    1.18705711   -0.06803458
C    2.53496627   -0.38042469    0.68068636
H    2.57244024   -0.94571652   -0.25045186
H    3.43198117    0.23441492    0.73557772
H    2.56920771   -1.09581003    1.50245608
