8
Benzene ...  AcOH (OH-pi) Monomer B
C    0.06863906    0.15457276    6.91181764
O   -0.39955053    1.20401938    6.53255726
O    0.47185164   -0.82299051    6.07253238
H    0.30314682   -0.49707693    5.17112713
C    0.27859336   -0.24241433    8.34322343
H   -0.03137279    0.56692225    8.99321232
H   -0.29748737   -1.13903830    8.56017455
H    1.32709078   -0.47854642    8.50824202
