22
Pyridine ...  Pyridine (CH-N) Dimer
N   -0.94121124    0.79004136    0.01171891
C   -0.92275524   -0.55237814    0.03537875
H    0.05724051   -1.01558800    0.05135491
C   -2.07651907   -1.33301813    0.03929035
H   -1.99652895   -2.41058573    0.05887720
C   -3.31631294   -0.70333955    0.01759905
H   -4.23157489   -1.27908429    0.01979377
C   -3.34889528    0.68701881   -0.00708596
H   -4.28544414    1.22610455   -0.02465899
C   -2.14310382    1.38263356   -0.00889005
H   -2.13809974    2.46565258   -0.02778297
N    4.08163025   -0.90890918    0.04043785
C    5.28340907   -1.50208541    0.04251769
H    5.27818522   -2.58504786    0.06440685
C    6.48934530   -0.80712685    0.01851631
H    7.42578363   -1.34666203    0.02161032
C    6.45702770    0.58317760   -0.00923040
H    7.37240263    1.15842865   -0.02841191
C    5.21734737    1.21346373   -0.01170751
H    5.13757464    2.29102231   -0.03279607
C    4.06343379    0.43345411    0.01348616
H    3.08352339    0.89711670    0.01182332
