9
MeOH ... Water Dimer
O   -0.78656202    0.04516844   -0.00718912
H    0.17770677    0.01269590   -0.00683539
C   -1.24799094   -1.29028354    0.00108362
H   -2.33427744   -1.25889710    0.00022120
H   -0.92596575   -1.84976810   -0.88044538
H   -0.92702783   -1.83846288    0.89007652
O    4.14609102   -0.11753609   -0.00257560
H    4.58529516    0.27061611   -0.76244828
H    4.58397531    0.28506819    0.75051393
