21
Benzene ... AcNH2 (NH-pi) Dimer
C    0.85556074    0.35853244    1.04975426
H    1.51382550    0.90267956    1.71276582
C    1.34289713   -0.67537866    0.25115740
H    2.39288384   -0.93334472    0.28196305
C    0.47780661   -1.37670110   -0.58781577
H    0.85608399   -2.17890753   -1.20682428
C   -0.87482983   -1.04255615   -0.63045178
H   -1.54540573   -1.58570014   -1.28241614
C   -1.36239729   -0.00701391    0.16584645
H   -2.41157102    0.25346723    0.13077885
C   -0.49844404    0.69315695    1.00699199
H   -0.86611090    1.49033989    1.63803696
C    0.03757397    0.35691499    5.05499553
O    0.28406332    1.40034123    4.46775625
N   -0.26647328   -0.79809155    4.40382819
H   -0.24127297   -0.80510688    3.39719158
H   -0.42224976   -1.65358387    4.89952990
C    0.06041867    0.26202316    6.56341300
H    1.09213247    0.34623544    6.89848680
H   -0.36148524   -0.66461984    6.94443867
H   -0.48904599    1.10586947    6.97018351
