12
AcOH ... Uracil Monomer B
N    4.11181054    1.08601348    0.18317154
H    4.50501565    0.17062325    0.01145212
C    5.03333844    2.13412910    0.36462466
O    6.23048483    1.91583329    0.31174469
C    4.39427237    3.41359148    0.60523181
H    5.01380714    4.28051636    0.75670908
C    3.04718817    3.49358164    0.63461304
H    2.52434798    4.42202864    0.80991125
N    2.24345742    2.40289965    0.44420701
H    1.21940559    2.47284734    0.46799727
C    2.74338990    1.15267687    0.21003479
O    2.03135746    0.16317198    0.03656461
