11
Benzene ...  Pyridine (TS) Monomer B
N    0.02353898    0.35882312    6.74109522
C    0.17822280    1.29678472    5.79621834
H    0.31999363    2.30931073    6.15412007
C    0.16401353    1.02949496    4.42971890
H    0.29425359    1.83052075    3.71583349
C   -0.02032478   -0.28213473    4.00442847
H   -0.03689123   -0.52525340    2.95108054
C   -0.18217370   -1.26716906    4.97328756
H   -0.32871672   -2.30238003    4.69851605
C   -0.15297123   -0.89983596    6.31637707
H   -0.27656737   -1.64734993    7.09047807
