11
Pyridine ...  Pyridine (pi-pi) Monomer B
N   -0.72241682   -1.67597233    5.49121333
C   -1.65489491   -0.71534287    5.56506449
H   -2.65768416   -1.04629767    5.80725735
C   -1.39289187    0.63572555    5.35568511
H   -2.19144963    1.36023099    5.43395620
C   -0.09346454    1.02496684    5.04541670
H    0.14852002    2.06396532    4.86954544
C    0.88609477    0.04206868    4.96205524
H    1.90839601    0.28881442    4.71361826
C    0.52361505   -1.28306908    5.19524823
H    1.26747581   -2.06862371    5.13879963
