11
Pyridine ...  Pyridine (pi-pi) Monomer B
N   -0.48395649   -1.47363340    3.40973908
C   -1.41643458   -0.51300394    3.48359024
H   -2.41922383   -0.84395874    3.72578310
C   -1.15443154    0.83806448    3.27421086
H   -1.95298930    1.56256992    3.35248195
C    0.14499579    1.22730576    2.96394245
H    0.38698035    2.26630425    2.78807119
C    1.12455510    0.24440761    2.88058098
H    2.14685634    0.49115335    2.63214400
C    0.76207538   -1.08073015    3.11377398
H    1.50593614   -1.86628478    3.05732538
