15
Benzene ...  Water (OH-pi) Dimer
C    0.78014717   -0.60991473   -1.20755689
H    0.89619160   -1.13763959   -2.14414463
C    0.47794275    0.75099363   -1.20789541
H    0.35696423    1.27816780   -2.14405407
C    0.32728928    1.43186787   -0.00000000
H    0.09146503    2.48713922    0.00000000
C    0.47794275    0.75099363    1.20789541
H    0.35696423    1.27816780    2.14405407
C    0.78014717   -0.60991473    1.20755689
H    0.89619160   -1.13763959    2.14414463
C    0.93164831   -1.28998134    0.00000000
H    1.16848573   -2.34521369   -0.00000000
O   -2.78653593   -0.27405602   -0.00000000
H   -2.62173193   -1.21877755   -0.00000000
H   -1.89923499    0.09753430   -0.00000000
