7
Water ... MeNH2 Monomer B
N    1.88254365    0.08931633    0.00417698
H    2.17790808   -0.46332164   -0.79061388
H    2.19262414   -0.42140476    0.82103647
C    2.54187892    1.39768030   -0.03606466
H    2.23133650    1.97940526    0.82845076
H    3.63318821    1.35838533   -0.04502033
H    2.21516665    1.93359777   -0.92388847
