29
Uracil ...  Pentane Dimer
N   -0.20890478   -0.96458262    0.53476104
H   -0.22415099   -1.97310940    0.60508386
C   -1.44634208   -0.34458112    0.30665858
O   -2.46123675   -1.01079161    0.19789196
C   -1.35778219    1.10318559    0.22814378
H   -2.25657214    1.66773071    0.04984731
C   -0.16300320    1.70989257    0.38112632
H   -0.04629046    2.78244591    0.33334968
N    0.98545210    1.00082412    0.61120636
H    1.86755978    1.46692777    0.74478430
C    1.02702092   -0.37917011    0.71264723
O    2.04919670   -0.99739548    0.93725979
C    1.13172948    2.35577491    3.94188171
H    0.70088086    2.66682361    2.98909915
H    0.49749556    2.76120803    4.73012936
H    2.11460950    2.81622232    4.03500320
C    1.20474594    0.83690396    4.03140005
H    1.63512958    0.54734111    4.99269101
H    1.87933553    0.44574341    3.26628189
C   -0.16003925    0.17873731    3.87658330
H   -0.83128351    0.54761312    4.65820254
H   -0.60751012    0.48900233    2.92668307
C   -0.10375031   -1.34194924    3.93621879
H    0.31985518   -1.64437966    4.89685498
H    0.58777143   -1.70382818    3.17171636
C   -1.47303323   -1.98382245    3.75244514
H   -1.91141223   -1.71036477    2.79225963
H   -1.41609444   -3.07059084    3.79650233
H   -2.16099601   -1.65547647    4.53167819
