9
Water ... MeOH Dimer
O   -0.52532979   -0.05097108   -0.31451686
H   -0.94200663    0.74790163    0.01125282
H    0.40369652    0.05978598   -0.07356837
O    4.31708897    0.03056216    0.22393858
H    4.68507180   -0.54151525    0.90146690
C    4.78209404   -0.44106776   -1.03822053
H    4.35127695    0.21002593   -1.79133457
H    5.86805773   -0.39027490   -1.11253246
H    4.45375143   -1.46093726   -1.23730117
