13
MeOH ... MeNH2 Dimer
O   -0.70692019    0.04583037    0.00638610
H    0.26562361    0.07171014    0.00133929
C   -1.07667067   -1.31391581    0.00161428
H   -2.16292358   -1.36319577    0.00586542
H   -0.72340594   -1.84465168   -0.88774350
H   -0.71607978   -1.85282083    0.88307978
N    4.19830338   -0.14798088   -0.00816441
H    4.56892293    0.35979563    0.78496798
H    4.56904622    0.31635769   -0.82742324
C    4.67605531   -1.53401432    0.02929680
H    4.28417047   -2.06803960   -0.83289493
H    5.76276647   -1.64074949    0.03233129
H    4.28392891   -2.02074449    0.91892894
