24
Benzene ...  Uracil (pi-pi) Dimer
C    0.82576911    1.23652484   -0.04025044
H    1.52101317    2.06312520   -0.08247145
C    1.30015992   -0.06294088    0.12725601
H    2.36365753   -0.24226113    0.20767420
C    0.40352312   -1.12855218    0.19824486
H    0.77375338   -2.13742677    0.32412109
C   -0.96780949   -0.89519049    0.10313994
H   -1.66520900   -1.71998342    0.16042745
C   -1.44350838    0.40448328   -0.06244130
H   -2.50751124    0.58550112   -0.12415016
C   -0.54575549    1.46876875   -0.13624741
H   -0.91422190    2.47742220   -0.26785516
N   -0.15947728    0.34720596    6.26525962
H   -0.53278467    1.24896739    6.00236665
C    1.23266940    0.27421905    6.39727296
O    1.92357972    1.26864275    6.25243890
C    1.71156952   -1.05985865    6.71538316
H    2.76862161   -1.21207459    6.84950430
C    0.83186029   -2.07423983    6.84159969
H    1.13778781   -3.08266044    7.07812405
N   -0.51338560   -1.88920791    6.67150755
H   -1.16213343   -2.65176685    6.77037672
C   -1.08783391   -0.66440688    6.37209293
O   -2.28562232   -0.51358361    6.22998074
