24
Peptide ... Peptide Dimer
C   -0.70150294   -0.29062770    2.40688440
H   -1.18329596    0.39564777    3.09887422
H    0.34956157   -0.03032157    2.30783303
H   -0.79405685   -1.29160545    2.82403929
C   -1.44854625   -0.24487664    1.09181530
O   -2.66045000   -0.42847909    1.03434577
N   -0.67005656    0.00591656    0.00977691
H    0.32667532    0.12256396    0.14159284
C   -1.22705457    0.08979374   -1.31996754
H   -2.29202426   -0.10650119   -1.24087756
H   -1.07780169    1.07994030   -1.74854354
H   -0.77662849   -0.64799919   -1.98337273
C    2.16200617   -2.35904589    0.69580462
H    2.72023098   -3.26904912    0.48989662
H    1.23331432   -2.36557534    0.13147920
H    1.90278725   -2.33559919    1.75274562
C    2.92964212   -1.10463385    0.35956788
O    2.38445547   -0.00319704    0.30259549
N    4.25640033   -1.27344762    0.14581991
H    4.63272163   -2.20069331    0.22257724
C    5.14363851   -0.16698164   -0.14312862
H    4.52944613    0.72382813   -0.22295234
H    5.87105306   -0.02751591    0.65427468
H    5.66862881   -0.32696337   -1.08227096
