7
MeNH2 ...  Pyridine Monomer A
N   -0.54105920    0.02957620   -0.20899508
H    0.05555335   -0.78611810   -0.13029335
H   -1.46966940   -0.27470845    0.05314338
C   -0.07879927    1.04239036    0.73845886
H   -0.72015294    1.91941377    0.67198026
H   -0.05075819    0.72382293    1.78551453
H    0.92643072    1.35660379    0.46199919
