8
Ethyne ...  Ethyne (TS) Dimer
C   -0.60172996   -0.02857012    0.38493492
H   -1.66373543   -0.02852657    0.37901431
C    0.61010917   -0.02866364    0.38816379
H    1.67213544   -0.02879308    0.38796752
C   -0.00828326    0.11111746    4.44769118
H   -0.00488888    0.07738241    3.38439429
C   -0.01221968    0.14940748    5.65915656
H   -0.01548591    0.18278337    6.72006798
