12
Pyridine ...  Uracil (pi-pi) Monomer B
N   -0.80866872   -0.33864253    2.22699447
H   -1.70355774   -0.77050602    2.04239098
C   -0.80841383    1.05916726    2.32000547
O   -1.84829691    1.68736707    2.20515534
C    0.51108092    1.61824861    2.54756854
H    0.61239728    2.68547078    2.64343672
C    1.58095451    0.79955631    2.61908859
H    2.58483355    1.16822101    2.76751512
N    1.46289337   -0.55773696    2.50653393
H    2.27632936   -1.14992431    2.49836629
C    0.26244643   -1.20496938    2.28015223
O    0.17030918   -2.41038746    2.14657295
