17
Neopentane ...  Pentane Monomer B
C   -0.00046445    0.04541857    4.58856419
C    0.00060729   -0.09471254    6.10829714
H   -0.88642873    0.36936350    6.54166655
H    0.00985880   -1.14549279    6.40130701
H    0.87926752    0.38495202    6.54194021
C   -1.23991979   -0.63623346    4.01466568
H   -1.26321900   -0.54727634    2.92783649
H   -1.25200542   -1.69750986    4.26767888
H   -2.15086351   -0.18394221    4.40975080
C    1.25214066   -0.61212224    4.01509385
H    1.27346745   -0.52383657    2.92812289
H    1.28527120   -1.67268308    4.26918617
H    2.15395290   -0.14147893    4.40951497
C   -0.01471232    1.52521106    4.21394291
H    0.86305367    2.03579808    4.61289804
H   -0.01523653    1.65166598    3.13029122
H   -0.90281827    2.01854477    4.61173105
