14
Water ... Pyridine Dimer
O   -0.55283102   -0.10169749   -0.00049879
H   -0.87175963    0.80179220    0.00014440
H    0.41265950   -0.00183225   -0.00025181
N    2.20644565    0.08867230    0.00011461
C    2.90235229    0.05470151    1.14486246
H    2.31767974    0.07831245    2.05573049
C    4.29137588   -0.01048092    1.19485852
H    4.79728226   -0.03533508    2.14918765
C    5.00253902   -0.04360672   -0.00005262
H    6.08237898   -0.09538027   -0.00013305
C    4.29123073   -0.01054758   -1.19485392
H    4.79702767   -0.03542061   -2.14925252
C    2.90220071    0.05464741   -1.14470766
H    2.31743183    0.07824807   -2.05550021
