18
MeNH2 ...  Pyridine Dimer
N   -0.54105920    0.02957620   -0.20899508
H    0.05555335   -0.78611810   -0.13029335
H   -1.46966940   -0.27470845    0.05314338
C   -0.07879927    1.04239036    0.73845886
H   -0.72015294    1.91941377    0.67198026
H   -0.05075819    0.72382293    1.78551453
H    0.92643072    1.35660379    0.46199919
N    1.66800789   -1.11807557   -0.01713550
C    2.00644420   -0.30573151   -1.02884797
H    1.46377698   -0.45026949   -1.95422933
C    2.97777346    0.68640229   -0.92848097
H    3.20262590    1.31074258   -1.78133166
C    3.63861353    0.85594373    0.28378347
H    4.39646748    1.61818106    0.40016760
C    3.29848062    0.02098120    1.34290642
H    3.78106903    0.11144344    2.30560707
C    2.31469906   -0.94380781    1.14372304
H    2.02861473   -1.60755541    1.95033370
