16
AcOH ... AcOH Dimer
C   -1.06170920    1.29714057    0.29206000
O   -0.35816112    2.27045861    0.53181267
O   -0.58930352    0.09491776    0.00378881
H    0.40443566    0.12772262    0.01841184
C   -2.55842780    1.34254982    0.29625732
H   -2.89599798    2.34746400    0.51831634
H   -2.93288928    1.02239045   -0.67299555
H   -2.93721196    0.64491043    1.03955708
C    3.64542026    1.11220748    0.27773514
O    2.94180189    0.13889299    0.03794754
O    3.17299393    2.31464287    0.56551361
H    2.17920539    2.28174463    0.55111311
C    5.14213271    1.06630473    0.27577075
H    5.47971227    0.06498554    0.03824525
H    5.52363125    1.77665767   -0.45369815
H    5.51364902    1.36899925    1.25182611
