17
Benzene ...  Neopentane Monomer B
C    0.10703135    0.45545100    6.40602382
C    1.55328003    0.63423836    5.95106233
H    1.96913675    1.56751624    6.33448531
H    2.17667935   -0.18637727    6.30991620
H    1.61388917    0.65362965    4.86212812
C    0.05263998    0.42407986    7.93088914
H   -0.97315004    0.29665944    8.27997691
H    0.64804589   -0.40160701    8.32344287
H    0.44093447    1.35196449    8.35379472
C   -0.44234868   -0.85404097    5.84572780
H   -1.47722228   -1.00431601    6.15839939
H    0.14410790   -1.70301474    6.20153907
H   -0.41356885   -0.85449375    4.75541356
C   -0.73434143    1.62002269    5.88981835
H   -0.71280047    1.65605308    4.79981978
H   -1.77413058    1.51625312    6.20430083
H   -0.35868883    2.57071716    6.27192526
