24
Uracil ... Uracil (BP) Dimer
N   -0.72999913    0.02276763    0.00091465
H    0.29842255    0.07400447    0.00162304
C   -1.29682453   -1.24042682    0.00150234
O   -0.59409886   -2.25351751    0.00263371
C   -2.74362229   -1.26233170    0.00047938
H   -3.24959045   -2.21183517    0.00083311
C   -3.42201997   -0.09590921   -0.00092259
H   -4.50089709   -0.04921603   -0.00174546
N   -2.77483684    1.10540895   -0.00141807
H   -3.28383807    1.97387739   -0.00248574
C   -1.39147866    1.23701978   -0.00052538
O   -0.83984371    2.31703528   -0.00100125
N    4.24151532   -1.09079432    0.00049978
H    4.68875911   -0.18422112    0.00088659
C    5.09756309   -2.20541211   -0.00100010
O    6.30701512   -2.05370769   -0.00174930
C    4.38334466   -3.46758565   -0.00150449
H    4.94992921   -4.38261640   -0.00264313
C    3.03317569   -3.47140352   -0.00054440
H    2.45621245   -4.38436828   -0.00086308
N    2.29518428   -2.32052268    0.00090601
H    1.26884802   -2.34196548    0.00158308
C    2.86795521   -1.07585764    0.00145666
O    2.21763433   -0.03463933    0.00269305
