8
Benzene ...  AcOH Monomer B
C    0.48728003   -0.37189320    3.42160265
O    1.68277271   -0.20794245    3.49811843
O   -0.09222164   -1.58329816    3.62104101
H    0.64222922   -2.18440665    3.81407912
C   -0.53460419    0.67203832    3.10092147
H   -0.05630977    1.64298467    3.05409870
H   -0.98740430    0.43884213    2.13821342
H   -1.31945521    0.66650182    3.85342095
