24
Benzene ...  Peptide (NH-pi) Dimer
C    0.40877989    1.05102502    0.37553605
H    1.01193875    1.94854570    0.36807788
C    1.01916788   -0.19976963    0.28905343
H    2.09557130   -0.27183333    0.21719099
C    0.24172263   -1.35688270    0.29668995
H    0.71521633   -2.32658869    0.22807218
C   -1.14617971   -1.26425757    0.39390198
H   -1.74918186   -2.16192663    0.39940980
C   -1.75727780   -0.01396023    0.48295173
H   -2.83351378    0.05824368    0.55903918
C   -0.97968602    1.14420653    0.47228370
H   -1.45405142    2.11400088    0.53713589
C    0.25100500    1.96924617    4.54692988
H   -0.10714010    2.13497701    3.53363711
H    1.27558856    2.32595574    4.62837139
H   -0.35309187    2.54288200    5.24528260
C    0.21415866    0.51608306    4.96263870
O    0.49878707    0.16372164    6.10117677
N   -0.15823661   -0.34963369    3.98339761
H   -0.31936451    0.00835706    3.05732927
C   -0.19502948   -1.77651291    4.20148467
H   -0.11694191   -1.94342045    5.27148090
H   -1.13027002   -2.19486349    3.83474656
H    0.63409700   -2.28038568    3.70414724
