23
Benzene ...  Pyridine (pi-pi) Dimer
C    0.81874699    0.86417234    0.18828612
H    1.46611361    1.71666767    0.34472141
C    1.36899712   -0.39052394   -0.06669818
H    2.44303637   -0.51186194   -0.11057444
C    0.53437860   -1.48849320   -0.27188804
H    0.96084825   -2.46156422   -0.47550749
C   -0.84911561   -1.33050735   -0.21989643
H   -1.49706942   -2.18186028   -0.37955321
C   -1.39948546   -0.07603020    0.04043417
H   -2.47268667    0.04490778    0.09338206
C   -0.56529230    1.02140336    0.24227921
H   -0.99255667    1.99366131    0.44625817
N   -2.42051525    0.17295032    3.60074019
C   -1.80562932    1.33061813    3.88080438
H   -2.45323337    2.18378958    4.04331648
C   -0.42341442    1.47146586    3.97097520
H    0.00843434    2.43511598    4.20219150
C    0.37753697    0.35448656    3.75676129
H    1.45510614    0.42487084    3.81159580
C   -0.24301493   -0.85416848    3.46310171
H    0.33275958   -1.74979036    3.27902677
C   -1.63352921   -0.89220636    3.39765229
H   -2.14238213   -1.82065974    3.16880962
