11
Benzene ...  Pyridine (TS) Monomer B
N    0.01961937    0.29562875    7.05201614
C    0.17430319    1.23359036    6.10713926
H    0.31607401    2.24611636    6.46504099
C    0.16009392    0.96630059    4.74063983
H    0.29033398    1.76732639    4.02675441
C   -0.02424439   -0.34532909    4.31534940
H   -0.04081084   -0.58844776    3.26200146
C   -0.18609332   -1.33036343    5.28420848
H   -0.33263634   -2.36557439    5.00943697
C   -0.15689084   -0.96303032    6.62729799
H   -0.28048698   -1.71054429    7.40139899
