15
Cyclopentane ...  Cyclopentane Monomer B
C   -1.15117806   -0.42249929    4.17966450
H   -1.48431256   -0.18580068    3.16708013
H   -1.95596646   -0.96559776    4.67265100
C    0.16242839   -1.21804421    4.13190330
H    0.21237333   -1.87578690    3.26576948
H    0.24271601   -1.84940184    5.01628859
C    1.29174361   -0.15533838    4.13249939
H    1.91300857   -0.21601723    3.24062577
H    1.94915311   -0.30522142    4.98790456
C    0.58157024    1.20633037    4.24036622
H    0.40170707    1.61482215    3.24436710
H    1.16195420    1.94073387    4.79633949
C   -0.76048222    0.87185793    4.89017808
H   -1.50015078    1.66436970    4.78529678
H   -0.62044229    0.68021788    5.95672704
