10
MeNH2 ... Water Dimer
N   -0.53346397   -0.27959351    0.10699576
H   -0.62915138   -1.24842455    0.38284867
H   -1.12260363   -0.16615944   -0.70776410
C   -1.01690943    0.58848610    1.18737346
H   -0.91275967    1.62555174    0.87952116
H   -2.05473726    0.41508213    1.47850360
H   -0.38502338    0.44880090    2.06061419
O    2.12893643    0.93112408    0.21075564
H    1.31141902    0.43485159    0.03760274
H    2.71083788    0.67262621   -0.50499045
