15
Uracil ...  Cyclopentane Monomer B
C    1.03858777   -0.85362865    3.81026804
H    1.49244027   -0.94568489    2.82228549
H    1.58309026   -1.51760892    4.47946571
C    1.09290124    0.61232335    4.24320402
H    2.05119123    1.08522229    4.03247974
H    0.90478595    0.69396089    5.31642716
C   -0.07445035    1.22513783    3.47243282
H    0.19985393    1.31391943    2.41896120
H   -0.35886477    2.21627895    3.82406684
C   -1.19139484    0.18756592    3.64346114
H   -1.91693412    0.21117977    2.83208923
H   -1.73548047    0.39226308    4.56570975
C   -0.46835849   -1.17898191    3.74711802
H   -0.71102304   -1.82313804    2.90375835
H   -0.78346472   -1.70638432    4.64620445
