22
Pyridine ...  Pyridine (TS) Dimer
N    1.32276272   -0.01037598    1.01918373
C    0.65128601   -1.14899203    0.79680119
H    1.20041842   -2.06552808    0.97367282
C   -0.67268130   -1.19471172    0.36665693
H   -1.15719362   -2.14732141    0.20646407
C   -1.34719675    0.00313399    0.15214401
H   -2.37535653    0.00840542   -0.18229302
C   -0.66455797    1.19409062    0.37900199
H   -1.14262633    2.15155765    0.22872051
C    0.65889576    1.13497854    0.80885987
H    1.21410272    2.04591045    0.99543831
N    0.41505574    0.00060587    6.89962006
C    1.28572376   -0.00500692    5.88020702
H    2.33358034   -0.00375840    6.15450982
C    0.91233803   -0.01207468    4.53837895
H    1.65979869   -0.01623870    3.75727930
C   -0.44371053   -0.01348875    4.22596349
H   -0.77343921   -0.01894422    3.19568204
C   -1.36181380   -0.00777366    5.27113310
H   -2.42626383   -0.00862305    5.08239731
C   -0.88620999   -0.00085601    6.58009195
H   -1.57839365    0.00372712    7.41328316
