8
Benzene ...  AcOH (OH-pi) Monomer B
C   -0.02354983    0.34033375    5.66381253
O   -0.49173943    1.38978037    5.28455214
O    0.37966275   -0.63722952    4.82452727
H    0.21095792   -0.31131593    3.92312201
C    0.18640447   -0.05665334    7.09521832
H   -0.12356168    0.75268325    7.74520721
H   -0.38967626   -0.95327731    7.31216943
H    1.23490189   -0.29278542    7.26023690
