12
AcOH ... Uracil Monomer B
N    5.04931812    1.10966730    0.17963583
H    5.44252323    0.19427707    0.00791640
C    5.97084602    2.15778292    0.36108894
O    7.16799241    1.93948711    0.30820898
C    5.33177995    3.43724530    0.60169609
H    5.95131472    4.30417018    0.75317336
C    3.98469575    3.51723545    0.63107733
H    3.46185556    4.44568245    0.80637554
N    3.18096500    2.42655347    0.44067130
H    2.15691317    2.49650116    0.46446156
C    3.68089749    1.17633068    0.20649907
O    2.96886504    0.18682579    0.03302889
