12
Uracil ... Uracil (BP) Monomer B
N    4.33020284   -1.09541591    0.00050023
H    4.77744662   -0.18884271    0.00088705
C    5.18625061   -2.21003370   -0.00099964
O    6.39570264   -2.05832928   -0.00174884
C    4.47203218   -3.47220723   -0.00150404
H    5.03861673   -4.38723798   -0.00264267
C    3.12186321   -3.47602511   -0.00054394
H    2.54489997   -4.38898987   -0.00086262
N    2.38387180   -2.32514427    0.00090647
H    1.35753554   -2.34658707    0.00158354
C    2.95664273   -1.08047923    0.00145712
O    2.30632185   -0.03926092    0.00269351
