8
Ethyne ...  AcOH (OH-pi) Monomer B
C    2.65174149   -0.56022583    0.40625103
O    2.39756244    0.39587642   -0.29258672
O    1.70383687   -1.33456606    0.97393763
H    0.84283749   -0.96726707    0.70616649
C    4.02737665   -1.04167566    0.75640193
H    4.76576246   -0.40412557    0.28555161
H    4.15358716   -1.02982093    1.83643726
H    4.14965379   -2.06952020    0.42316760
