8
Pentane ...  AcOH Monomer B
C   -1.02926656   -0.42942411    6.91574713
O   -1.45188050   -1.54460436    6.71860055
O   -1.84295892    0.62954140    7.14833661
H   -2.74372103    0.27516087    7.10780087
C    0.41100050   -0.01975803    6.93295252
H    1.03682357   -0.88993898    6.77479736
H    0.58703792    0.71451560    6.14982794
H    0.64831175    0.44954292    7.88475491
