17
Cyclopentane ...  Neopentane Monomer B
C    0.04220617    0.07932919    5.27401743
C   -0.05413802   -0.07275679    6.78965791
H    0.93840834   -0.08822299    7.24201513
H   -0.61306279    0.75512771    7.22809282
H   -0.56130272   -1.00142287    7.05500750
C    0.75625942    1.38623430    4.93839255
H    0.83777896    1.51973343    3.85871067
H    0.21278703    2.24092274    5.34389393
H    1.76386396    1.39688472    5.35662555
C   -1.36280564    0.09915384    4.67669790
H   -1.32587405    0.21634377    3.59284894
H   -1.94510517    0.92657739    5.08504382
H   -1.89270870   -0.82863301    4.89802720
C    0.83010599   -1.09415572    4.69667925
H    0.33488567   -2.04114645    4.91692240
H    0.92494916   -1.00697295    3.61354448
H    1.83482407   -1.13156035    5.12042771
