24
Peptide ... Peptide Dimer
C   -0.70150294   -0.29062770    2.40688440
H   -1.18329596    0.39564777    3.09887422
H    0.34956157   -0.03032157    2.30783303
H   -0.79405685   -1.29160545    2.82403929
C   -1.44854625   -0.24487664    1.09181530
O   -2.66045000   -0.42847909    1.03434577
N   -0.67005656    0.00591656    0.00977691
H    0.32667532    0.12256396    0.14159284
C   -1.22705457    0.08979374   -1.31996754
H   -2.29202426   -0.10650119   -1.24087756
H   -1.07780169    1.07994030   -1.74854354
H   -0.77662849   -0.64799919   -1.98337273
C    2.06392187   -2.35305148    0.68813041
H    2.62214668   -3.26305471    0.48222241
H    1.13523001   -2.35958093    0.12380500
H    1.80470294   -2.32960478    1.74507141
C    2.83155781   -1.09863944    0.35189368
O    2.28637117    0.00279737    0.29492128
N    4.15831603   -1.26745321    0.13814571
H    4.53463733   -2.19469890    0.21490303
C    5.04555421   -0.16098723   -0.15080283
H    4.43136183    0.72982254   -0.23062654
H    5.77296876   -0.02152150    0.64660048
H    5.57054450   -0.32096896   -1.08994517
