23
Benzene ...  Pyridine (pi-pi) Dimer
C    0.81874699    0.86417234    0.18828612
H    1.46611361    1.71666767    0.34472141
C    1.36899712   -0.39052394   -0.06669818
H    2.44303637   -0.51186194   -0.11057444
C    0.53437860   -1.48849320   -0.27188804
H    0.96084825   -2.46156422   -0.47550749
C   -0.84911561   -1.33050735   -0.21989643
H   -1.49706942   -2.18186028   -0.37955321
C   -1.39948546   -0.07603020    0.04043417
H   -2.47268667    0.04490778    0.09338206
C   -0.56529230    1.02140336    0.24227921
H   -0.99255667    1.99366131    0.44625817
N   -2.17896100    0.05471297    2.72207610
C   -1.56407507    1.21238078    3.00214029
H   -2.21167913    2.06555223    3.16465238
C   -0.18186017    1.35322852    3.09231110
H    0.24998858    2.31687863    3.32352740
C    0.61909122    0.23624921    2.87809719
H    1.69666039    0.30663349    2.93293170
C   -0.00146069   -0.97240583    2.58443761
H    0.57431382   -1.86802771    2.40036268
C   -1.39197496   -1.01044371    2.51898820
H   -1.90082789   -1.93889709    2.29014552
