11
Pyridine ...  Pyridine (TS) Monomer B
N    0.53878103    0.00305915    6.48086466
C    1.40944904   -0.00255365    5.46145163
H    2.45730562   -0.00130512    5.73575442
C    1.03606331   -0.00962141    4.11962355
H    1.78352397   -0.01378543    3.33852391
C   -0.31998525   -0.01103547    3.80720809
H   -0.64971393   -0.01649095    2.77692664
C   -1.23808851   -0.00532039    4.85237770
H   -2.30253855   -0.00616977    4.66364192
C   -0.76248471    0.00159727    6.16133655
H   -1.45466837    0.00618040    6.99452776
