7
MeNH2 ... MeNH2 Monomer B
N    2.31867576   -0.44311651    0.18967917
H    2.61494443   -0.16857878   -0.73830607
H    2.94222543   -1.19080683    0.46487403
C    2.47890573    0.69209408    1.10335447
H    2.20871543    0.37739830    2.10900758
H    3.48631605    1.11387064    1.14032621
H    1.78636535    1.47786956    0.81069723
