12
Benzene ...  Peptide (NH-pi) Monomer B
C    0.24245529    1.94941163    4.08588006
H   -0.11568981    2.11514248    3.07258729
H    1.26703885    2.30612120    4.16732157
H   -0.36164158    2.52304746    4.78423278
C    0.20560896    0.49624852    4.50158889
O    0.49023736    0.14388710    5.64012695
N   -0.16678631   -0.36946822    3.52234779
H   -0.32791421   -0.01147748    2.59627945
C   -0.20357919   -1.79634745    3.74043486
H   -0.12549162   -1.96325499    4.81043109
H   -1.13881972   -2.21469803    3.37369674
H    0.62554729   -2.30022021    3.24309742
