15
Cyclopentane ...  Cyclopentane Monomer B
C   -1.13824599   -0.39650381    4.77011178
H   -1.47138049   -0.15980519    3.75752741
H   -1.94303439   -0.93960227    5.26309828
C    0.17536046   -1.19204872    4.72235058
H    0.22530540   -1.84979141    3.85621676
H    0.25564808   -1.82340635    5.60673587
C    1.30467568   -0.12934289    4.72294667
H    1.92594063   -0.19002174    3.83107305
H    1.96208517   -0.27922594    5.57835184
C    0.59450231    1.23232586    4.83081350
H    0.41463913    1.64081764    3.83481438
H    1.17488627    1.96672936    5.38678677
C   -0.74755015    0.89785342    5.48062536
H   -1.48721872    1.69036518    5.37574406
H   -0.60751022    0.70621337    6.54717432
