24
Uracil ... Uracil (BP) Dimer
N   -0.72999913    0.02276763    0.00091465
H    0.29842255    0.07400447    0.00162304
C   -1.29682453   -1.24042682    0.00150234
O   -0.59409886   -2.25351751    0.00263371
C   -2.74362229   -1.26233170    0.00047938
H   -3.24959045   -2.21183517    0.00083311
C   -3.42201997   -0.09590921   -0.00092259
H   -4.50089709   -0.04921603   -0.00174546
N   -2.77483684    1.10540895   -0.00141807
H   -3.28383807    1.97387739   -0.00248574
C   -1.39147866    1.23701978   -0.00052538
O   -0.83984371    2.31703528   -0.00100125
N    5.92657032   -1.17860409    0.00050842
H    6.37381410   -0.27203089    0.00089523
C    6.78261809   -2.29322188   -0.00099146
O    7.99207011   -2.14151746   -0.00174066
C    6.06839966   -3.55539542   -0.00149585
H    6.63498421   -4.47042617   -0.00263449
C    4.71823068   -3.55921329   -0.00053576
H    4.14126745   -4.47217805   -0.00085443
N    3.98023927   -2.40833245    0.00091466
H    2.95390301   -2.42977525    0.00159172
C    4.55301021   -1.16366741    0.00146530
O    3.90268933   -0.12244910    0.00270170
