8
Benzene ...  AcOH Monomer B
C    0.41822061   -0.27055440    4.03174704
O    1.61371328   -0.10660365    4.10826281
O   -0.16128107   -1.48195936    4.23118539
H    0.57316979   -2.08306785    4.42422351
C   -0.60366362    0.77337712    3.71106586
H   -0.12536920    1.74432347    3.66424309
H   -1.05646372    0.54018093    2.74835781
H   -1.38851463    0.76784062    4.46356534
