23
Benzene ...  Pyridine (pi-pi) Dimer
C    0.81874699    0.86417234    0.18828612
H    1.46611361    1.71666767    0.34472141
C    1.36899712   -0.39052394   -0.06669818
H    2.44303637   -0.51186194   -0.11057444
C    0.53437860   -1.48849320   -0.27188804
H    0.96084825   -2.46156422   -0.47550749
C   -0.84911561   -1.33050735   -0.21989643
H   -1.49706942   -2.18186028   -0.37955321
C   -1.39948546   -0.07603020    0.04043417
H   -2.47268667    0.04490778    0.09338206
C   -0.56529230    1.02140336    0.24227921
H   -0.99255667    1.99366131    0.44625817
N   -3.33867377    0.62237577    6.94058184
C   -2.72378784    1.78004358    7.22064603
H   -3.37139190    2.63321504    7.38315812
C   -1.34157295    1.92089132    7.31081684
H   -0.90972419    2.88454143    7.54203314
C   -0.54062155    0.80391201    7.09660293
H    0.53694761    0.87429629    7.15143744
C   -1.16117346   -0.40474302    6.80294336
H   -0.58539895   -1.30036491    6.61886842
C   -2.55168773   -0.44278091    6.73749394
H   -3.06054066   -1.37123429    6.50865127
