17
Uracil ...  Neopentane Monomer B
C   -0.42675112   -0.01805003    4.18036007
C   -1.74349730    0.72323877    4.39523298
H   -2.45056871    0.10503258    4.95009532
H   -1.58399775    1.64342332    4.95941799
H   -2.20120708    0.98473579    3.44007932
C    0.18868550   -0.37148796    5.53163752
H    1.13184767   -0.90386126    5.40085568
H    0.38570645    0.52825378    6.11643966
H   -0.48260853   -1.00922496    6.10837426
C    0.53837315    0.87542779    3.40457098
H    1.48694363    0.36283308    3.23421698
H    0.74366335    1.79356424    3.95799735
H    0.11597776    1.15391440    2.43710654
C   -0.68806831   -1.29808443    3.38999518
H   -1.15180671   -1.07625072    2.42737054
H    0.24450799   -1.83648335    3.21035850
H   -1.35857612   -1.95989839    3.94018010
