12
Pyridine ...  Uracil (pi-pi) Monomer B
N   -0.69945361   -0.27609536    3.45125140
H   -1.59434263   -0.70795886    3.26664791
C   -0.69919872    1.12171443    3.54426240
O   -1.73908180    1.74991423    3.42941227
C    0.62029603    1.68079577    3.77182547
H    0.72161240    2.74801794    3.86769365
C    1.69016962    0.86210347    3.84334552
H    2.69404866    1.23076817    3.99177206
N    1.57210848   -0.49518979    3.73079086
H    2.38554448   -1.08737714    3.72262322
C    0.37166154   -1.14242222    3.50440916
O    0.27952430   -2.34784030    3.37082988
