12
AcNH2 ... Uracil Monomer B
N    3.68012071    1.10967678   -0.12602807
H    4.17015016    0.23371960   -0.24396654
C    4.48374673    2.25252172    0.02445363
O    5.69930875    2.15689940    0.00926885
C    3.71115455    3.46783821    0.18759756
H    4.23291754    4.40103107    0.31063269
C    2.36199384    3.40616268    0.18192081
H    1.74158979    4.28252306    0.29959770
N    1.67691173    2.23388117    0.02735504
H    0.64412125    2.22482010    0.02651772
C    2.30780170    1.02941167   -0.13490499
O    1.71061297   -0.03450429   -0.27671249
