12
Benzene ...  Peptide (NH-pi) Monomer B
C    0.23948429    1.94251919    3.92566666
H   -0.11866081    2.10825004    2.91237389
H    1.26406785    2.29922876    4.00710817
H   -0.36461258    2.51615502    4.62401938
C    0.20263796    0.48935608    4.34137549
O    0.48726636    0.13699466    5.47991355
N   -0.16975731   -0.37636066    3.36213440
H   -0.33088521   -0.01836992    2.43606606
C   -0.20655018   -1.80323989    3.58022146
H   -0.12846262   -1.97014743    4.65021769
H   -1.14179072   -2.22159047    3.21348335
H    0.62257629   -2.30711266    3.08288402
