16
AcOH ... AcOH Dimer
C   -1.06170920    1.29714057    0.29206000
O   -0.35816112    2.27045861    0.53181267
O   -0.58930352    0.09491776    0.00378881
H    0.40443566    0.12772262    0.01841184
C   -2.55842780    1.34254982    0.29625732
H   -2.89599798    2.34746400    0.51831634
H   -2.93288928    1.02239045   -0.67299555
H   -2.93721196    0.64491043    1.03955708
C    2.63051391    1.10771638    0.26996822
O    1.92689555    0.13440189    0.03018062
O    2.15808758    2.31015177    0.55774669
H    1.16429904    2.27725353    0.54334619
C    4.12722636    1.06181363    0.26800383
H    4.46480592    0.06049444    0.03047833
H    4.50872491    1.77216657   -0.46146507
H    4.49874267    1.36450815    1.24405919
