17
Pentane ...  AcNH2 Monomer A
C   -2.58777605   -0.32310566    0.46945828
H   -2.61038910   -0.87636604   -0.46961946
H   -2.65974410   -1.05188654    1.27771411
H   -3.47603507    0.30562460    0.50896129
C   -1.30955982    0.49739424    0.58506260
H   -1.31725060    1.08326190    1.50634108
H   -1.26237673    1.21557375   -0.23677617
C   -0.05682966   -0.36826029    0.55844017
H   -0.08617526   -1.07335882    1.39587537
H   -0.05380919   -0.97684333   -0.35147393
C    1.23159606    0.44006559    0.63203246
H    1.21328340    1.05356193    1.53459305
H    1.26629733    1.13137662   -0.21310563
C    2.47257523   -0.44314441    0.61922148
H    2.52071888   -1.03526342   -0.29489695
H    3.38773437    0.14408974    0.68390871
H    2.45929703   -1.13936423    1.45861821
