18
AcNH2 ... AcNH2 Dimer
C   -1.30974974    1.18017617   -0.02517034
O   -0.72530044    2.15514767    0.45271335
N   -0.66562116    0.09505470   -0.49199449
H    0.35458266    0.05144817   -0.45930922
H   -1.18362704   -0.67359969   -0.87075610
C   -2.81671934    1.15599865   -0.11060597
H   -3.22062895    1.26254146    0.89308239
H   -3.20942754    0.24863402   -0.56190009
H   -3.14315813    2.01659563   -0.68889311
C    2.88673058    1.06610712    0.14102494
O    2.30230882    0.09208669   -0.33870603
N    2.24264302    2.15085034    0.60887149
H    1.22253765    2.19528813    0.57457017
H    2.76066708    2.91881155    0.98899214
C    4.39372976    1.09039150    0.22625002
H    4.78560083    1.99004102    0.69343403
H    4.79728596    1.00284646   -0.77953029
H    4.72150852    0.21981660    0.78843036
