24
Uracil ... Uracil (BP) Dimer
N   -0.72999913    0.02276763    0.00091465
H    0.29842255    0.07400447    0.00162304
C   -1.29682453   -1.24042682    0.00150234
O   -0.59409886   -2.25351751    0.00263371
C   -2.74362229   -1.26233170    0.00047938
H   -3.24959045   -2.21183517    0.00083311
C   -3.42201997   -0.09590921   -0.00092259
H   -4.50089709   -0.04921603   -0.00174546
N   -2.77483684    1.10540895   -0.00141807
H   -3.28383807    1.97387739   -0.00248574
C   -1.39147866    1.23701978   -0.00052538
O   -0.83984371    2.31703528   -0.00100125
N    4.06414000   -1.08155113    0.00049887
H    4.51138378   -0.17497793    0.00088568
C    4.92018777   -2.19616892   -0.00100101
O    6.12963979   -2.04446450   -0.00175021
C    4.20596934   -3.45834245   -0.00150540
H    4.77255389   -4.37337321   -0.00264404
C    2.85580036   -3.46216033   -0.00054531
H    2.27883712   -4.37512509   -0.00086398
N    2.11780895   -2.31127949    0.00090511
H    1.09147269   -2.33272229    0.00158217
C    2.69057989   -1.06661445    0.00145575
O    2.04025900   -0.02539614    0.00269214
