11
Pyridine ...  Pyridine (CH-N) Monomer B
N    1.87339180   -0.96755160    0.04340425
C    3.07517062   -1.56072784    0.04548409
H    3.06994677   -2.64369029    0.06737325
C    4.28110686   -0.86576928    0.02148271
H    5.21754518   -1.40530446    0.02457672
C    4.24878925    0.52453518   -0.00626400
H    5.16416419    1.09978623   -0.02544551
C    3.00910892    1.15482131   -0.00874111
H    2.92933619    2.23237989   -0.02982967
C    1.85519535    0.37481169    0.01645256
H    0.87528495    0.83847427    0.01478971
