9
AcNH2 ... AcNH2 Monomer B
C    2.42311771    1.05649358    0.11216966
O    1.83869595    0.08247314   -0.36756131
N    1.77903015    2.14123680    0.58001621
H    0.75892478    2.18567459    0.54571490
H    2.29705421    2.90919800    0.96013686
C    3.93011689    1.08077796    0.19739474
H    4.32198796    1.98042747    0.66457876
H    4.33367309    0.99323292   -0.80838556
H    4.25789565    0.21020305    0.75957508
