15
Cyclopentane ...  Cyclopentane Monomer B
C   -1.11557397   -0.35092947    5.80526233
H   -1.44870847   -0.11423086    4.79267797
H   -1.92036237   -0.89402793    6.29824883
C    0.19803248   -1.14647439    5.75750113
H    0.24797742   -1.80421707    4.89136731
H    0.27832010   -1.77783202    6.64188642
C    1.32734770   -0.08376856    5.75809722
H    1.94861266   -0.14444741    4.86622361
H    1.98475720   -0.23365160    6.61350239
C    0.61717433    1.27790019    5.86596406
H    0.43731116    1.68639198    4.86996493
H    1.19755829    2.01230369    6.42193733
C   -0.72487813    0.94342775    6.51577592
H   -1.46454669    1.73593952    6.41089462
H   -0.58483820    0.75178770    7.58232488
