7
MeOH ... MeNH2 Monomer B
N    2.03538442   -0.02715388   -0.00293750
H    2.40600397    0.48062262    0.79019489
H    2.40612726    0.43718468   -0.82219634
C    2.51313636   -1.41318733    0.03452370
H    2.12125152   -1.94721261   -0.82766803
H    3.59984751   -1.51992250    0.03755820
H    2.12100996   -1.89991750    0.92415585
