17
Benzene ...  Neopentane Monomer B
C    0.16443904    0.50131532    4.98403117
C    1.61068772    0.68010268    4.52906968
H    2.02654443    1.61338055    4.91249266
H    2.23408704   -0.14051295    4.88792355
H    1.67129685    0.69949397    3.44013546
C    0.11004767    0.46994418    6.50889648
H   -0.91574236    0.34252376    6.85798426
H    0.70545357   -0.35574269    6.90145022
H    0.49834215    1.39782881    6.93180206
C   -0.38494100   -0.80817666    4.42373515
H   -1.41981460   -0.95845169    4.73640673
H    0.20151558   -1.65715042    4.77954641
H   -0.35616117   -0.80862943    3.33342090
C   -0.67693375    1.66588701    4.46782569
H   -0.65539279    1.70191740    3.37782713
H   -1.71672289    1.56211744    4.78230817
H   -0.30128115    2.61658148    4.84993260
