10
MeNH2 ... Water Dimer
N   -0.53346397   -0.27959351    0.10699576
H   -0.62915138   -1.24842455    0.38284867
H   -1.12260363   -0.16615944   -0.70776410
C   -1.01690943    0.58848610    1.18737346
H   -0.91275967    1.62555174    0.87952116
H   -2.05473726    0.41508213    1.47850360
H   -0.38502338    0.44880090    2.06061419
O    2.31351792    1.00260468    0.20381283
H    1.49600051    0.50633219    0.03065993
H    2.89541937    0.74410681   -0.51193326
