34
Neopentane ...  Neopentane Dimer
C    0.38252221   -0.07060697    0.76689582
C   -1.04063947    0.39681125    1.06093593
H   -1.77157460   -0.28150025    0.61833023
H   -1.22471777    0.43573509    2.13551890
H   -1.21406603    1.39372444    0.65309065
C    0.59084747   -1.46681814    1.34797791
H    1.60291380   -1.82295000    1.15010285
H    0.43896858   -1.46674598    2.42828668
H   -0.10991906   -2.17868425    0.90931390
C    1.37826905    0.89843536    1.39914944
H    2.40439397    0.58544074    1.20073365
H    1.24378092    0.94597430    2.48070991
H    1.24837318    1.90502262    0.99895071
C    0.60196094   -0.11103419   -0.74309659
H    0.45921182    0.87703910   -1.18289819
H    1.61369399   -0.44345945   -0.97967210
H   -0.09953078   -0.79754982   -1.21922069
C   -0.48950024    0.09045850    6.75219921
C    0.93331221   -0.37850750    6.45879966
H    1.11775142   -0.41783665    5.38427920
H    1.66474636    0.29916533    6.90153524
H    1.10557588   -1.37551354    6.86692024
C   -0.69589705    1.48702003    6.17136873
H   -1.70786014    1.84400548    6.36821626
H    0.00502155    2.19809150    6.61109050
H   -0.54278783    1.48721665    5.09122638
C   -0.70979473    0.13063472    8.26205283
H   -1.72101089    0.46491171    8.49812602
H   -0.00728228    0.81558375    8.73889105
H   -0.56923164   -0.85788562    8.70150457
C   -1.48596296   -0.87731916    6.11905281
H   -1.35703695   -1.88429454    6.51863178
H   -2.51185205   -0.56354630    6.31744066
H   -1.35125859   -0.92429355    5.03747615
