12
Peptide ... Peptide Monomer B
C    1.86805180   -2.34108090    0.67280536
H    2.42627660   -3.25108414    0.46689735
H    0.93935994   -2.34761035    0.10847994
H    1.60883287   -2.31763420    1.72974636
C    2.63568774   -1.08666886    0.33656862
O    2.09050110    0.01476794    0.27959622
N    3.96244595   -1.25548263    0.12282065
H    4.33876725   -2.18272832    0.19957797
C    4.84968414   -0.14901665   -0.16612789
H    4.23549176    0.74179312   -0.24595160
H    5.57709869   -0.00955092    0.63127542
H    5.37467443   -0.30899838   -1.10527022
