12
Uracil ...  Uracil (pi-pi) Monomer B
N   -0.55148935   -0.69724487    0.73462494
H   -0.22640064   -1.24372125    1.52335563
C   -0.48357095   -1.31502721   -0.52065500
O   -0.09514960   -2.46857517   -0.62597673
N   -1.18601117    1.35571090   -0.09807182
H   -0.90187375   -0.84834009   -2.61199556
C   -1.20032511    0.83967383   -1.36439740
H   -1.47210522    1.53356264   -2.14564531
C   -0.88910059   -0.44943520   -1.61248722
H   -1.30404245    2.34402350    0.05682913
C   -0.82053327    0.62770858    1.01871830
O   -0.73570426    1.11431897    2.12980905
