11
Pyridine ...  Pyridine (CH-N) Monomer B
N    3.36069957   -0.92805436    0.04140630
C    4.56247839   -1.52123059    0.04348614
H    4.55725453   -2.60419305    0.06537530
C    5.76841462   -0.82627203    0.01948476
H    6.70485295   -1.36580721    0.02257877
C    5.73609701    0.56403242   -0.00826195
H    6.65147195    1.13928347   -0.02744346
C    4.49641668    1.19431855   -0.01073906
H    4.41664395    2.27187713   -0.03182762
C    3.34250311    0.41430893    0.01445461
H    2.36259271    0.87797152    0.01279177
