8
Benzene ...  AcOH Monomer B
C    0.24921288   -0.02255003    5.52494093
O    1.44470556    0.14140072    5.60145670
O   -0.33028879   -1.23395499    5.72437928
H    0.40416207   -1.83506348    5.91741740
C   -0.77267134    1.02138149    5.20425974
H   -0.29437692    1.99232784    5.15743697
H   -1.22547144    0.78818530    4.24155170
H   -1.55752236    1.01584499    5.95675922
