17
Neopentane ...  Pentane Monomer B
C   -0.00049392    0.05505058    4.92744823
C    0.00057783   -0.08508052    6.44718119
H   -0.88645820    0.37899552    6.88055060
H    0.00982933   -1.13586077    6.74019106
H    0.87923805    0.39458404    6.88082426
C   -1.23994925   -0.62660145    4.35354972
H   -1.26324847   -0.53764432    3.26672054
H   -1.25203488   -1.68787784    4.60656292
H   -2.15089297   -0.17431019    4.74863484
C    1.25211120   -0.60249022    4.35397790
H    1.27343798   -0.51420456    3.26700694
H    1.28524173   -1.66305106    4.60807021
H    2.15392343   -0.13184691    4.74839902
C   -0.01474179    1.53484307    4.55282696
H    0.86302421    2.04543009    4.95178209
H   -0.01526599    1.66129800    3.46917527
H   -0.90284774    2.02817679    4.95061510
