11
MeOH ... Pyridine Monomer B
N    2.19606418    0.02061901   -0.00158625
C    2.89243256   -0.00381632   -1.14630585
H    2.30795397    0.01940721   -2.05728129
C    4.28206963   -0.05355919   -1.19499110
H    4.78942197   -0.07085122   -2.14877383
C    4.99244286   -0.07927180    0.00062192
H    6.07277886   -0.11703656    0.00147122
C    4.28019540   -0.05425070    1.19516178
H    4.78599414   -0.07207502    2.14964747
C    2.89064176   -0.00450101    1.14420769
H    2.30463597    0.01817342    2.05432638
