12
MeOH ... MeOH Dimer
O   -0.63613493   -0.02328241    0.28059932
H    0.30809737   -0.04707875    0.07646369
C   -1.15206541   -1.31128778    0.01525955
H   -2.20994502   -1.29626539    0.26395586
H   -1.05661024   -1.59267086   -1.03619061
H   -0.67483575   -2.08627276    0.62051145
O    2.04802916   -0.11571579   -0.00454230
H    2.51681847    0.49866874   -0.57420826
C    2.55686309    0.04130315    1.31717502
H    2.00329401   -0.64689328    1.94730590
H    3.61585919   -0.20913575    1.37389816
H    2.40442345    1.05199720    1.69506756
