7
MeNH2 ... MeNH2 Monomer B
N    1.75870866   -0.35652481    0.13826468
H    2.05497733   -0.08198708   -0.78972056
H    2.38225832   -1.10421513    0.41345954
C    1.91893863    0.77868578    1.05193999
H    1.64874833    0.46399000    2.05759309
H    2.92634894    1.20046234    1.08891172
H    1.22639825    1.56446126    0.75928274
