22
Pyridine ...  Pyridine (CH-N) Dimer
N   -0.94121124    0.79004136    0.01171891
C   -0.92275524   -0.55237814    0.03537875
H    0.05724051   -1.01558800    0.05135491
C   -2.07651907   -1.33301813    0.03929035
H   -1.99652895   -2.41058573    0.05887720
C   -3.31631294   -0.70333955    0.01759905
H   -4.23157489   -1.27908429    0.01979377
C   -3.34889528    0.68701881   -0.00708596
H   -4.28544414    1.22610455   -0.02465899
C   -2.14310382    1.38263356   -0.00889005
H   -2.13809974    2.46565258   -0.02778297
N    2.20468736   -0.95875365    0.04295921
C    3.40646617   -1.55192988    0.04503905
H    3.40124232   -2.63489234    0.06692821
C    4.61240241   -0.85697133    0.02103767
H    5.54884074   -1.39650650    0.02413168
C    4.58008480    0.53333313   -0.00670904
H    5.49545974    1.10858418   -0.02589055
C    3.34040447    1.16361926   -0.00918615
H    3.26063174    2.24117784   -0.03027471
C    2.18649090    0.38360964    0.01600752
H    1.20658050    0.84727222    0.01434467
