9
Pentane ...  AcNH2 Monomer B
C    0.04357580    0.20426535    4.18299214
O    0.07048807    1.38933883    3.89115095
N    1.17615607   -0.54761229    4.28581208
H    2.04709633   -0.12503178    4.01714983
H    1.13721811   -1.53949896    4.41723501
C   -1.24664518   -0.53467213    4.44744597
H   -1.09939517   -1.49539350    4.93457033
H   -1.75287270   -0.69298107    3.49663262
H   -1.88458913    0.09256430    5.06271782
