9
Benzene ... AcNH2 (NH-pi) Monomer B
C   -0.12333647   -0.15320420    5.96290216
O    0.12315288    0.89022204    5.37566288
N   -0.42738372   -1.30821074    5.31173481
H   -0.40218341   -1.31522607    4.30509821
H   -0.58316021   -2.16370306    5.80743652
C   -0.10049177   -0.24809603    7.47131963
H    0.93122203   -0.16388375    7.80639343
H   -0.52239568   -1.17473903    7.85234530
H   -0.64995644    0.59575028    7.87809014
