11
Benzene ...  Pyridine (TS) Monomer B
N   -0.01333702   -0.23571398    9.66626156
C    0.14134680    0.70224762    8.72138468
H    0.28311763    1.71477363    9.07928640
C    0.12713753    0.43495786    7.35488524
H    0.25737759    1.23598365    6.64099983
C   -0.05720078   -0.87667183    6.92959481
H   -0.07376723   -1.11979050    5.87624687
C   -0.21904970   -1.86170616    7.89845390
H   -0.36559273   -2.89691713    7.62368238
C   -0.18984723   -1.49437306    9.24154340
H   -0.31344336   -2.24188703    10.01564440
