9
MeOH ... Water Dimer
O   -0.78656202    0.04516844   -0.00718912
H    0.17770677    0.01269590   -0.00683539
C   -1.24799094   -1.29028354    0.00108362
H   -2.33427744   -1.25889710    0.00022120
H   -0.92596575   -1.84976810   -0.88044538
H   -0.92702783   -1.83846288    0.89007652
O    2.65798441   -0.06870032   -0.00417298
H    3.09718855    0.31945188   -0.76404566
H    3.09586870    0.33390396    0.74891655
