32
Cyclopentane ...  Neopentane Dimer
C    0.79991408   -1.02205164    0.68773696
H    0.85355588   -1.12205101   -0.39801435
H    1.49140210   -1.74416936    1.11972040
C    1.11688700    0.42495279    1.09966205
H    1.83814230    0.89014504    0.43045256
H    1.55556959    0.43982464    2.09708356
C   -0.24455916    1.16568959    1.10297714
H   -0.25807760    2.00086313    0.40532333
H   -0.44880450    1.57699582    2.09098447
C   -1.29871418    0.10381191    0.73930899
H   -1.47356078    0.10524338   -0.33800545
H   -2.25673428    0.27804118    1.22715843
C   -0.64687993   -1.22006836    1.13630660
H   -1.12443918   -2.08762702    0.68299327
H   -0.68601864   -1.34528332    2.22022006
C    0.04975087    0.09402205    5.61200898
C   -0.04659333   -0.05806392    7.12764946
H    0.94595304   -0.07353013    7.58000668
H   -0.60551810    0.76982058    7.56608437
H   -0.55375803   -0.98673000    7.39299904
C    0.76380411    1.40092717    5.27638410
H    0.84532366    1.53442630    4.19670222
H    0.22033172    2.25561560    5.68188548
H    1.77140865    1.41157758    5.69461710
C   -1.35526094    0.11384670    5.01468945
H   -1.31832936    0.23103663    3.93084049
H   -1.93756048    0.94127026    5.42303537
H   -1.88516401   -0.81394014    5.23601875
C    0.83765068   -1.07946285    5.03467080
H    0.34243037   -2.02645359    5.25491395
H    0.93249386   -0.99228009    3.95153603
H    1.84236877   -1.11686749    5.45841926
