9
Water ... MeOH Dimer
O   -0.52532979   -0.05097108   -0.31451686
H   -0.94200663    0.74790163    0.01125282
H    0.40369652    0.05978598   -0.07356837
O    3.33876579    0.03786793    0.14956374
H    3.70674861   -0.53420948    0.82709206
C    3.80377086   -0.43376199   -1.11259537
H    3.37295376    0.21733170   -1.86570941
H    4.88973455   -0.38296913   -1.18690730
H    3.47542824   -1.45363149   -1.31167601
