18
MeNH2 ...  Pyridine Dimer
N   -0.54105920    0.02957620   -0.20899508
H    0.05555335   -0.78611810   -0.13029335
H   -1.46966940   -0.27470845    0.05314338
C   -0.07879927    1.04239036    0.73845886
H   -0.72015294    1.91941377    0.67198026
H   -0.05075819    0.72382293    1.78551453
H    0.92643072    1.35660379    0.46199919
N    1.89821894   -1.16546933   -0.00097989
C    2.23665526   -0.35312526   -1.01269236
H    1.69398804   -0.49766325   -1.93807372
C    3.20798452    0.63900853   -0.91232536
H    3.43283696    1.26334882   -1.76517605
C    3.86882459    0.80854997    0.29993908
H    4.62667853    1.57078730    0.41632321
C    3.52869168   -0.02641256    1.35906203
H    4.01128008    0.06404968    2.32176268
C    2.54491011   -0.99120156    1.15987865
H    2.25882578   -1.65494917    1.96648931
