11
Benzene ...  Pyridine (pi-pi) Monomer B
N   -2.42051525    0.17295032    3.60074019
C   -1.80562932    1.33061813    3.88080438
H   -2.45323337    2.18378958    4.04331648
C   -0.42341442    1.47146586    3.97097520
H    0.00843434    2.43511598    4.20219150
C    0.37753697    0.35448656    3.75676129
H    1.45510614    0.42487084    3.81159580
C   -0.24301493   -0.85416848    3.46310171
H    0.33275958   -1.74979036    3.27902677
C   -1.63352921   -0.89220636    3.39765229
H   -2.14238213   -1.82065974    3.16880962
