17
MeOH ... Pyridine Dimer
O   -0.62765177    0.08746727    0.00147128
H    0.34360203    0.12230333   -0.00060045
C   -0.97793123   -1.27855601    0.00123841
H   -2.06339209   -1.34204332    0.00500898
H   -0.61488369   -1.80637584   -0.88538395
H   -0.60864033   -1.80823682    0.88417273
N    1.90368577    0.03666808   -0.00143066
C    2.60005416    0.01223275   -1.14615026
H    2.01557556    0.03545628   -2.05712570
C    3.98969122   -0.03751011   -1.19483551
H    4.49704357   -0.05480215   -2.14861824
C    4.70006445   -0.06322273    0.00077751
H    5.78040045   -0.10098748    0.00162681
C    3.98781700   -0.03820162    1.19531737
H    4.49361573   -0.05602595    2.14980306
C    2.59826335    0.01154806    1.14436328
H    2.01225757    0.03422249    2.05448197
