7
Benzene ...  MeNH2 (NH-pi) Monomer B
N    0.25991949   -0.23673309    4.01316649
H    0.39453784   -0.19269259    3.01009513
H    0.40141206    0.70841365    4.34563876
C   -1.11617999   -0.64311650    4.29060228
H   -1.27405655   -0.67166351    5.36715781
H   -1.88748217   -0.00273571    3.85048328
H   -1.27087197   -1.65268430    3.91498058
