12
Water ... Peptide Monomer B
C    2.43022979   -2.22073048   -0.23428859
H    3.08019263   -3.08184236   -0.36720398
H    1.74925382   -2.14325842   -1.07815386
H    1.81721289   -2.35952647    0.65271977
C    3.18496186   -0.92271760   -0.10169508
O    2.60824642    0.15257725    0.05489366
N    4.53559499   -1.02022029   -0.16631305
H    4.93654662   -1.93075427   -0.29582815
C    5.40383710    0.13175017   -0.05686997
H    4.76734297    1.00005062    0.07791464
H    6.06942661    0.04029498    0.79922291
H    5.99830282    0.26117066   -0.95912916
