12
AcOH ... Uracil Monomer B
N    4.02653640    1.08386197    0.18349315
H    4.41974152    0.16847174    0.01177372
C    4.94806431    2.13197759    0.36494626
O    6.14521070    1.91368178    0.31206629
C    4.30899824    3.41143997    0.60555341
H    4.92853301    4.27836485    0.75703068
C    2.96191404    3.49143012    0.63493464
H    2.43907385    4.41987713    0.81023285
N    2.15818329    2.40074814    0.44452861
H    1.13413146    2.47069583    0.46831888
C    2.65811577    1.15052535    0.21035639
O    1.94608333    0.16102047    0.03688621
