32
Cyclopentane ...  Neopentane Dimer
C    0.79991408   -1.02205164    0.68773696
H    0.85355588   -1.12205101   -0.39801435
H    1.49140210   -1.74416936    1.11972040
C    1.11688700    0.42495279    1.09966205
H    1.83814230    0.89014504    0.43045256
H    1.55556959    0.43982464    2.09708356
C   -0.24455916    1.16568959    1.10297714
H   -0.25807760    2.00086313    0.40532333
H   -0.44880450    1.57699582    2.09098447
C   -1.29871418    0.10381191    0.73930899
H   -1.47356078    0.10524338   -0.33800545
H   -2.25673428    0.27804118    1.22715843
C   -0.64687993   -1.22006836    1.13630660
H   -1.12443918   -2.08762702    0.68299327
H   -0.68601864   -1.34528332    2.22022006
C    0.05328077    0.10089632    5.77014330
C   -0.04306343   -0.05118965    7.28578378
H    0.94948294   -0.06665585    7.73814100
H   -0.60198820    0.77669485    7.72421870
H   -0.55022813   -0.97985573    7.55113337
C    0.76733401    1.40780144    5.43451842
H    0.84885355    1.54130057    4.35483655
H    0.22386162    2.26248987    5.84001981
H    1.77493855    1.41845185    5.85275143
C   -1.35173105    0.12072097    5.17282378
H   -1.31479946    0.23791091    4.08897482
H   -1.93403058    0.94814453    5.58116970
H   -1.88163411   -0.80706587    5.39415307
C    0.84118058   -1.07258858    5.19280513
H    0.34596026   -2.01957932    5.41304828
H    0.93602375   -0.98540582    4.10967035
H    1.84589866   -1.10999322    5.61655359
