8
Pentane ...  AcOH Monomer B
C   -0.75408068   -0.35803834    5.50655054
O   -1.17669462   -1.47321859    5.30940396
O   -1.56777304    0.70092718    5.73914002
H   -2.46853515    0.34654664    5.69860428
C    0.68618638    0.05162774    5.52375592
H    1.31200945   -0.81855320    5.36560076
H    0.86222380    0.78590137    4.74063134
H    0.92349763    0.52092869    6.47555831
