11
MeOH ... Pyridine Monomer B
N    2.29345708    0.01527297   -0.00163808
C    2.98982547   -0.00916236   -1.14635768
H    2.40534687    0.01406118   -2.05733312
C    4.37946253   -0.05890522   -1.19504293
H    4.88681488   -0.07619726   -2.14882566
C    5.08983576   -0.08461784    0.00057009
H    6.17017176   -0.12238259    0.00141939
C    4.37758830   -0.05959673    1.19510995
H    4.88338704   -0.07742106    2.14959564
C    2.98803466   -0.00984705    1.14415586
H    2.40202888    0.01282738    2.05427455
