15
Water ... Peptide Dimer
O   -0.39201845   -0.38471874    0.07607132
H   -0.91146085    0.41381204    0.17764877
H    0.52490382   -0.06848469    0.09051136
C    2.33558110   -2.23077358   -0.23267044
H    2.98554394   -3.09188546   -0.36558582
H    1.65460513   -2.15330152   -1.07653571
H    1.72256420   -2.36956957    0.65433793
C    3.09031317   -0.93276070   -0.10007693
O    2.51359773    0.14253415    0.05651181
N    4.44094630   -1.03026339   -0.16469490
H    4.84189792   -1.94079737   -0.29421000
C    5.30918841    0.12170707   -0.05525182
H    4.67269428    0.99000751    0.07953279
H    5.97477792    0.03025187    0.80084107
H    5.90365413    0.25112756   -0.95751100
