17
Uracil ...  Neopentane Monomer B
C   -0.32083062   -0.01177501    3.88374716
C   -1.63757681    0.72951379    4.09862006
H   -2.34464821    0.11130761    4.65348240
H   -1.47807725    1.64969834    4.66280508
H   -2.09528658    0.99101081    3.14346640
C    0.29460599   -0.36521293    5.23502460
H    1.23776816   -0.89758624    5.10424277
H    0.49162694    0.53452881    5.81982674
H   -0.37668803   -1.00294994    5.81176135
C    0.64429365    0.88170281    3.10795806
H    1.59286413    0.36910811    2.93760407
H    0.84958385    1.79983926    3.66138443
H    0.22189826    1.16018942    2.14049362
C   -0.58214782   -1.29180940    3.09338226
H   -1.04588622   -1.06997570    2.13075762
H    0.35042848   -1.83020832    2.91374558
H   -1.25265563   -1.95362336    3.64356718
