9
Pentane ...  AcNH2 Monomer B
C    0.05721560    0.23343720    4.82450245
O    0.08412786    1.41851068    4.53266126
N    1.18979587   -0.51844045    4.92732239
H    2.06073612   -0.09585993    4.65866014
H    1.15085790   -1.51032711    5.05874532
C   -1.23300539   -0.50550029    5.08895628
H   -1.08575538   -1.46622165    5.57608064
H   -1.73923291   -0.66380922    4.13814293
H   -1.87094933    0.12173614    5.70422813
