22
Pyridine ...  Pyridine (CH-N) Dimer
N   -0.94121124    0.79004136    0.01171891
C   -0.92275524   -0.55237814    0.03537875
H    0.05724051   -1.01558800    0.05135491
C   -2.07651907   -1.33301813    0.03929035
H   -1.99652895   -2.41058573    0.05887720
C   -3.31631294   -0.70333955    0.01759905
H   -4.23157489   -1.27908429    0.01979377
C   -3.34889528    0.68701881   -0.00708596
H   -4.28544414    1.22610455   -0.02465899
C   -2.14310382    1.38263356   -0.00889005
H   -2.13809974    2.46565258   -0.02778297
N    2.34234171   -0.95509807    0.04277429
C    3.54412052   -1.54827431    0.04485413
H    3.53889667   -2.63123676    0.06674330
C    4.75005676   -0.85331575    0.02085275
H    5.68649509   -1.39285093    0.02394676
C    4.71773915    0.53698871   -0.00689396
H    5.63311409    1.11223976   -0.02607547
C    3.47805882    1.16727484   -0.00937106
H    3.39828609    2.24483342   -0.03045963
C    2.32414525    0.38726522    0.01582261
H    1.34423485    0.85092780    0.01415976
