12
AcOH ... Uracil Monomer B
N    4.28232580    1.09031567    0.18252846
H    4.67553091    0.17492544    0.01080904
C    5.20385371    2.13843129    0.36398157
O    6.40100009    1.92013548    0.31110161
C    4.56478764    3.41789367    0.60458873
H    5.18432240    4.28481855    0.75606600
C    3.21770343    3.49788383    0.63396996
H    2.69486324    4.42633083    0.80926817
N    2.41397268    2.40720184    0.44356393
H    1.38992085    2.47714953    0.46735419
C    2.91390517    1.15697906    0.20939171
O    2.20187272    0.16747417    0.03592153
