15
Cyclopentane ...  Cyclopentane Monomer B
C   -1.14471203   -0.40950155    4.47488814
H   -1.47784652   -0.17280294    3.46230377
H   -1.94950043   -0.95260001    4.96787464
C    0.16889442   -1.20504646    4.42712694
H    0.21883936   -1.86278915    3.56099312
H    0.24918204   -1.83640409    5.31151223
C    1.29820965   -0.14234064    4.42772303
H    1.91947460   -0.20301949    3.53584941
H    1.95561914   -0.29222368    5.28312820
C    0.58803628    1.21932811    4.53558986
H    0.40817310    1.62781990    3.53959074
H    1.16842023    1.95373161    5.09156313
C   -0.75401618    0.88485567    5.18540172
H   -1.49368475    1.67736744    5.08052042
H   -0.61397626    0.69321562    6.25195068
