8
Benzene ...  AcOH Monomer B
C    0.52180975   -0.42256260    3.11653046
O    1.71730242   -0.25861185    3.19304623
O   -0.05769193   -1.63396756    3.31596881
H    0.67675893   -2.23507605    3.50900693
C   -0.50007448    0.62136892    2.79584928
H   -0.02178006    1.59231527    2.74902650
H   -0.95287458    0.38817273    1.83314123
H   -1.28492550    0.61583242    3.54834876
