8
Ethyne ...  Ethyne (TS) Dimer
C   -0.60172996   -0.02857012    0.38493492
H   -1.66373543   -0.02852657    0.37901431
C    0.61010917   -0.02866364    0.38816379
H    1.67213544   -0.02879308    0.38796752
C   -0.00742223    0.10106418    4.16336691
H   -0.00402785    0.06732913    3.10007003
C   -0.01135865    0.13935421    5.37483229
H   -0.01462488    0.17273009    6.43574371
