7
MeOH ... MeNH2 Monomer B
N    2.33032791   -0.04363029   -0.00365027
H    2.70094747    0.46414621    0.78948213
H    2.70107075    0.42070828   -0.82290910
C    2.80807985   -1.42966374    0.03381094
H    2.41619501   -1.96368901   -0.82838079
H    3.89479101   -1.53639891    0.03684544
H    2.41595345   -1.91639391    0.92344309
