16
Uracil ...  Ethyne Dimer
N   -0.05545357   -0.94799090    0.01001028
H   -0.05731609   -1.95771330    0.05505287
C   -1.31395971   -0.33514498   -0.06458622
O   -2.32889664   -1.00790087   -0.12310273
C   -1.24835877    1.11605191   -0.06650860
H   -2.16434937    1.67533298   -0.14710244
C   -0.05308010    1.73142748    0.03419541
H    0.04811054    2.80642986    0.04341968
N    1.11592628    1.02759107    0.13516893
H    1.99665515    1.49727976    0.26162029
C    1.17534700   -0.35380470    0.17616616
O    2.21463146   -0.96646542    0.33517250
C    0.86708836   -0.15011856    6.25376818
H    1.86290663   -0.50410442    6.13954945
C   -0.27751572    0.23633912    6.35996003
H   -1.28239828    0.56503947    6.46032419
