14
MeNH2 ... MeNH2 Dimer
N   -0.63864138    0.47091637    0.04456848
H    0.18995436   -0.11393716   -0.00577361
H   -1.30046894    0.08125680   -0.61366848
C   -1.19865882    0.39139858    1.39194660
H   -2.09273777    1.00924471    1.45316749
H   -1.46274551   -0.61584367    1.72945219
H   -0.48027554    0.79867491    2.10108731
N    2.65477412   -0.49508980    0.22053871
H    2.95104279   -0.22055206   -0.70744654
H    3.27832379   -1.24278011    0.49573357
C    2.81500410    0.64012079    1.13421401
H    2.54481380    0.32542501    2.13986712
H    3.82241441    1.06189735    1.17118575
H    2.12246372    1.42589628    0.84155676
