17
Neopentane ...  Neopentane Monomer B
C   -0.40413791    0.07469064    6.16628983
C    1.01867454   -0.39427535    5.87289029
H    1.20311375   -0.43360451    4.79836982
H    1.75010869    0.28339747    6.31562586
H    1.19093821   -1.39128140    6.28101086
C   -0.61053472    1.47125217    5.58545935
H   -1.62249781    1.82823762    5.78230688
H    0.09038388    2.18232364    6.02518112
H   -0.45742550    1.47144879    4.50531700
C   -0.62443240    0.11486686    7.67614346
H   -1.63564855    0.44914384    7.91221664
H    0.07808005    0.79981589    8.15298167
H   -0.48386931   -0.87365348    8.11559519
C   -1.40060063   -0.89308701    5.53314343
H   -1.27167462   -1.90006240    5.93272240
H   -2.42648972   -0.57931416    5.73153128
H   -1.26589626   -0.94006141    4.45156677
