11
Pyridine ...  Pyridine (TS) Monomer B
N    0.49704232    0.00223153    6.62213172
C    1.36771034   -0.00338126    5.60271869
H    2.41556691   -0.00213273    5.87702148
C    0.99432460   -0.01044902    4.26089062
H    1.74178527   -0.01461304    3.47979097
C   -0.36172395   -0.01186308    3.94847515
H   -0.69145263   -0.01731856    2.91819370
C   -1.27982722   -0.00614800    4.99364477
H   -2.34427725   -0.00699739    4.80490898
C   -0.80422341    0.00076966    6.30260362
H   -1.49640708    0.00535279    7.13579482
