16
Benzene ...  Ethyne (CH-pi) Dimer
C    0.83661195    1.11485600    0.23100790
H    1.48545250    1.97968049    0.21470491
C    1.38418781   -0.16696533    0.26005688
H    2.45768419   -0.29628753    0.26605977
C    0.54747934   -1.28184652    0.28693051
H    0.97191784   -2.27597918    0.31387670
C   -0.83666710   -1.11500365    0.28456279
H   -1.48555353   -1.97956851    0.30969784
C   -1.38416274    0.16685015    0.25560540
H   -2.45764469    0.29645927    0.25854055
C   -0.54749833    1.28174826    0.22897743
H   -0.97214124    2.27600137    0.21116093
C    0.00544546    0.06689301    3.42748930
H    0.00243633    0.04933746    2.36341380
C    0.00910591    0.08647386    4.63986547
H    0.01221832    0.10364679    5.70106248
