12
Benzene ...  Uracil (pi-pi) Monomer B
N   -0.29924125    0.74006143    2.57553285
H   -0.67254865    1.64182286    2.31263987
C    1.09290543    0.66707453    2.70754618
O    1.78381575    1.66149822    2.56271212
C    1.57180554   -0.66700318    3.02565639
H    2.62885764   -0.81921912    3.15977752
C    0.69209632   -1.68138436    3.15187291
H    0.99802384   -2.68980496    3.38839727
N   -0.65314957   -1.49635244    2.98178077
H   -1.30189740   -2.25891138    3.08064994
C   -1.22759788   -0.27155141    2.68236615
O   -2.42538629   -0.12072813    2.54025396
