12
Benzene ...  Uracil (pi-pi) Monomer B
N   -0.24660989    0.59212261    3.96498495
H   -0.61991728    1.49388403    3.70209198
C    1.14553679    0.51913570    4.09699829
O    1.83644711    1.51355939    3.95216422
C    1.62443691   -0.81494201    4.41510849
H    2.68148900   -0.96715795    4.54922962
C    0.74472768   -1.82932319    4.54132501
H    1.05065520   -2.83774380    4.77784937
N   -0.60051821   -1.64429127    4.37123287
H   -1.24926604   -2.40685021    4.47010204
C   -1.17496652   -0.41949024    4.07181826
O   -2.37275493   -0.26866696    3.92970606
