12
MeOH ... Peptide Monomer B
C    1.99783117    1.90343591    0.44070156
H    2.50422480    2.86488499    0.40583120
H    1.58728705    1.75730003    1.43857820
H    1.16818337    1.89392263   -0.26080397
C    2.91346156    0.74849709    0.12478535
O    2.48926676   -0.37141371   -0.16029619
N    4.23959847    1.01022136    0.18398471
H    4.53761092    1.92064950    0.48167190
C    5.22200451   -0.02988994   -0.03875911
H    4.86544732   -0.68082727   -0.83093607
H    6.16237375    0.42363389   -0.33727281
H    5.38151462   -0.63441684    0.85331643
