8
Ethyne ...  AcOH (OH-pi) Monomer B
C    2.75689767   -0.60696302    0.44060225
O    2.50271861    0.34913922   -0.25823550
O    1.80899305   -1.38130325    1.00828885
H    0.94799366   -1.01400426    0.74051771
C    4.13253282   -1.08841285    0.79075315
H    4.87091863   -0.45086276    0.31990283
H    4.25874334   -1.07655813    1.87078848
H    4.25480996   -2.11625740    0.45751883
