8
Benzene ...  AcOH Monomer B
C    0.43539576   -0.29575747    3.88000346
O    1.63088844   -0.13180672    3.95651923
O   -0.14410591   -1.50716243    4.07944181
H    0.59034495   -2.10827092    4.27247993
C   -0.58648847    0.74817405    3.55932228
H   -0.10819405    1.71912040    3.51249951
H   -1.03928857    0.51497786    2.59661423
H   -1.37133948    0.74263755    4.31182176
