17
Benzene ...  Neopentane Monomer B
C    0.13849425    0.48058743    5.62668550
C    1.58474293    0.65937479    5.17172401
H    2.00059965    1.59265267    5.55514699
H    2.20814225   -0.16124084    5.53057788
H    1.64535206    0.67876608    4.08278980
C    0.08410288    0.44921629    7.15155082
H   -0.94168715    0.32179587    7.50063859
H    0.67950878   -0.37647057    7.54410455
H    0.47239736    1.37710092    7.57445640
C   -0.41088579   -0.82890454    5.06638948
H   -1.44575939   -0.97917958    5.37906107
H    0.17557079   -1.67787830    5.42220075
H   -0.38210595   -0.82935732    3.97607524
C   -0.70287853    1.64515912    5.11048003
H   -0.68133758    1.68118951    4.02048146
H   -1.74266768    1.54138955    5.42496251
H   -0.32722594    2.59585359    5.49258694
