8
Ethyne ...  AcOH (OH-pi) Monomer B
C    2.23217639   -0.37374799    0.26919227
O    1.97799733    0.58235426   -0.42964547
O    1.28427177   -1.14808821    0.83687888
H    0.42327238   -0.78078923    0.56910774
C    3.60781154   -0.85519782    0.61934318
H    4.34619736   -0.21764773    0.14849286
H    3.73402206   -0.84334309    1.69937851
H    3.73008869   -1.88304236    0.28610885
