11
Pyridine ...  Pyridine (TS) Monomer B
N    0.25511007   -0.00256560    7.44096548
C    1.12577808   -0.00817839    6.42155244
H    2.17363466   -0.00692987    6.69585524
C    0.75239235   -0.01524616    5.07972437
H    1.49985301   -0.01941017    4.29862472
C   -0.60365621   -0.01666022    4.76730891
H   -0.93338489   -0.02211570    3.73702746
C   -1.52175947   -0.01094513    5.81247852
H   -2.58620951   -0.01179452    5.62374274
C   -1.04615567   -0.00402748    7.12143737
H   -1.73833933    0.00055565    7.95462858
