8
Benzene ...  AcOH Monomer B
C    0.40116368   -0.24552481    4.18244609
O    1.59665635   -0.08157407    4.25896187
O   -0.17833799   -1.45692977    4.38188445
H    0.55611286   -2.05803827    4.57492256
C   -0.62072055    0.79840670    3.86176491
H   -0.14242613    1.76935306    3.81494214
H   -1.07352065    0.56521052    2.89905687
H   -1.40557157    0.79287020    4.61426439
