22
Pyridine ...  Pyridine (pi-pi) Dimer
N    1.57248145    0.25454916   -0.25648131
C    0.96935990   -0.90316032    0.04452614
H    1.61363891   -1.77218121    0.10234520
C   -0.39815811   -1.02881911    0.28096043
H   -0.81842477   -1.99173710    0.53356364
C   -1.19580525    0.10655779    0.19539732
H   -2.26068964    0.04953865    0.37344280
C   -0.58712829    1.31741239   -0.12010544
H   -1.16181223    2.22950003   -0.20046257
C    0.78854733    1.33970567   -0.33224053
H    1.28843202    2.26879436   -0.57852690
N   -0.72241682   -1.67597233    5.49121333
C   -1.65489491   -0.71534287    5.56506449
H   -2.65768416   -1.04629767    5.80725735
C   -1.39289187    0.63572555    5.35568511
H   -2.19144963    1.36023099    5.43395620
C   -0.09346454    1.02496684    5.04541670
H    0.14852002    2.06396532    4.86954544
C    0.88609477    0.04206868    4.96205524
H    1.90839601    0.28881442    4.71361826
C    0.52361505   -1.28306908    5.19524823
H    1.26747581   -2.06862371    5.13879963
