21
Ethyne ...  Pentane Dimer
C   -0.60618936    0.05587406    0.58900491
H   -1.66803667    0.05577624    0.58901162
C    0.60584873    0.05554087    0.58926624
H    1.66767817    0.05486328    0.58972794
C   -2.53035793   -0.36254380    5.02250552
H   -2.53872455   -1.02449733    4.15609493
H   -2.58227626   -0.98881301    5.91309629
H   -3.43277255    0.24636026    4.98974389
C   -1.26982580    0.49205692    5.03357479
H   -1.28647747    1.16505614    5.89398391
H   -1.24455881    1.12627293    4.14477868
C    0.00009282   -0.34627408    5.07403012
H    0.00009555   -0.96406373    5.97709152
H    0.00015991   -1.03457324    4.22478893
C    1.26999138    0.49210199    5.03366166
H    1.28661920    1.16506910    5.89408297
H    1.24484646    1.12627430    4.14486047
C    2.53051387   -0.36253459    5.02271525
H    2.53889364   -1.02451735    4.15633617
H    3.43289264    0.24639675    4.98998888
H    2.58233110   -0.98874933    5.91334879
