34
Neopentane ...  Pentane Dimer
C   -2.53038287   -0.41757533    0.68130643
H   -2.55988603   -0.98278998   -0.25015619
H   -2.55403625   -1.13386495    1.50265790
H   -3.43621355    0.18414376    0.73677133
C   -1.27615683    0.44363493    0.75002483
H   -1.27808384    1.02521785    1.67508548
H   -1.28033899    1.16855564   -0.06715806
C    0.00220470   -0.38071620    0.67899257
H    0.00782894   -1.11141304    1.49383122
H    0.00624866   -0.96052270   -0.24882046
C    1.26833347    0.46239635    0.74936913
H    1.26201985    1.04425029    1.67424645
H    1.26163488    1.18705711   -0.06803458
C    2.53496627   -0.38042469    0.68068636
H    2.57244024   -0.94571652   -0.25045186
H    3.43198117    0.23441492    0.73557772
H    2.56920771   -1.09581003    1.50245608
C   -0.00055075    0.07363113    5.58116938
C    0.00052099   -0.06649997    7.10090233
H   -0.88651504    0.39757607    7.53427174
H    0.00977249   -1.11728022    7.39391220
H    0.87918121    0.41316459    7.53454540
C   -1.24000609   -0.60802090    5.00727087
H   -1.26330531   -0.51906377    3.92044168
H   -1.25209172   -1.66929729    5.26028407
H   -2.15094981   -0.15572964    5.40235599
C    1.25205436   -0.58390967    5.00769904
H    1.27338114   -0.49562401    3.92072808
H    1.28518489   -1.64447051    5.26179136
H    2.15386659   -0.11326636    5.40212016
C   -0.01479863    1.55342362    5.20654810
H    0.86296737    2.06401064    5.60550323
H   -0.01532283    1.67987855    4.12289641
H   -0.90290458    2.04675734    5.60433624
