11
MeNH2 ...  Pyridine Monomer B
N    2.24358438   -1.23657002    0.02325696
C    2.58202070   -0.42422596   -0.98845552
H    2.03935348   -0.56876394   -1.91383688
C    3.55334996    0.56790784   -0.88808851
H    3.77820240    1.19224812   -1.74093921
C    4.21419002    0.73744927    0.32417592
H    4.97204397    1.49968661    0.44056005
C    3.87405711   -0.09751325    1.38329888
H    4.35664552   -0.00705101    2.34599953
C    2.89027555   -1.06230226    1.18411549
H    2.60419122   -1.72604987    1.99072615
