17
Ethene ...  Pentane Monomer B
C   -2.53287076   -0.48987624    5.62539975
H   -2.56236420   -1.10289703    4.72420987
H   -2.56900471   -1.16409686    6.48101677
H   -3.43404211    0.12114018    5.64264570
C   -1.27143427    0.36279917    5.66121769
H   -1.27184013    0.98289274    6.56061163
H   -1.26304592    1.04970749    4.81215728
C   -0.00016001   -0.47475840    5.63427448
H   -0.00031406   -1.16143111    6.48610650
H   -0.00001894   -1.10233624    4.73763199
C    1.27106040    0.36282803    5.66167902
H    1.27133340    0.98263878    6.56116443
H    1.26286557    1.04990268    4.81277139
C    2.53251178   -0.48989648    5.62585484
H    2.56213525   -1.10275298    4.72454566
H    3.43368989    0.12103968    5.64343288
H    2.56843014   -1.16435256    6.48136055
