18
MeOH ... Peptide Dimer
O   -0.20877739   -0.21687067   -1.03240597
H    0.71112593   -0.38689175   -0.77396240
C   -1.02217337   -0.74117114   -0.00545419
H   -2.05749119   -0.53870733   -0.26859725
H   -0.90774336   -1.82182632    0.10853710
H   -0.82463111   -0.27549472    0.96464547
C    2.95803810    1.91179415    0.77208506
H    3.46443173    2.87324323    0.73721471
H    2.54749398    1.76565827    1.76996171
H    2.12839030    1.90228087    0.07057953
C    3.87366848    0.75685533    0.45616885
O    3.44947369   -0.36305547    0.17108731
N    5.19980540    1.01857960    0.51536822
H    5.49781785    1.92900774    0.81305541
C    6.18221143   -0.02153170    0.29262440
H    5.82565424   -0.67246903   -0.49955256
H    7.12258067    0.43199213   -0.00588930
H    6.34172155   -0.62605860    1.18469993
