14
Water ... Pyridine Dimer
O   -0.55283102   -0.10169749   -0.00049879
H   -0.87175963    0.80179220    0.00014440
H    0.41265950   -0.00183225   -0.00025181
N    2.50539336    0.10375555    0.00017568
C    3.20130000    0.06978476    1.14492353
H    2.61662745    0.09339570    2.05579155
C    4.59032359    0.00460233    1.19491959
H    5.09622997   -0.02025183    2.14924871
C    5.30148674   -0.02852347    0.00000844
H    6.38132669   -0.08029702   -0.00007198
C    4.59017844    0.00453567   -1.19479285
H    5.09597539   -0.02033735   -2.14919145
C    3.20114842    0.06973066   -1.14464659
H    2.61637954    0.09333132   -2.05543915
