27
Uracil ...  Cyclopentane Dimer
N    0.19572959   -0.84468925    0.82384642
H    0.45039753   -1.79675294    1.04976794
C   -1.17904919   -0.57368440    0.75948349
O   -1.99364624   -1.45626527    0.96690066
C   -1.47671471    0.81115567    0.43755952
H   -2.50635592    1.11565059    0.36389469
C   -0.46811280    1.68296245    0.23489084
H   -0.63843522    2.72164296   -0.00616410
N    0.84562854    1.30599113    0.32683051
H    1.58969256    1.96887924    0.18595979
C    1.25426147    0.01946187    0.63624397
O    2.42230438   -0.30171639    0.73187948
C    1.06687525   -0.86904202    4.72816975
H    1.52072776   -0.96109826    3.74018720
H    1.61137775   -1.53302229    5.39736742
C    1.12118872    0.59690998    5.16110573
H    2.07947871    1.06980891    4.95038144
H    0.93307343    0.67854752    6.23432887
C   -0.04616287    1.20972445    4.39033453
H    0.22814141    1.29850606    3.33686291
H   -0.33057729    2.20086558    4.74196855
C   -1.16310736    0.17215255    4.56136285
H   -1.88864664    0.19576640    3.74999094
H   -1.70719299    0.37684970    5.48361146
C   -0.44007101   -1.19439528    4.66501973
H   -0.68273556   -1.83855141    3.82166006
H   -0.75517724   -1.72179770    5.56410615
