7
Peptide ... MeNH2 Monomer B
N    3.28607878    0.31037629    0.32331732
H    3.68974510    0.85029581    1.07851741
H    3.70408265    0.67775754   -0.52232860
C    3.65838162   -1.10080653    0.47707007
H    3.23209422   -1.67183911   -0.34430538
H    4.73378026   -1.28749598    0.50285346
H    3.22390904   -1.48521354    1.39690607
