11
MeOH ... Pyridine Monomer B
N    2.78102069   -0.01149010   -0.00189754
C    3.47738908   -0.03592543   -1.14661714
H    2.89291048   -0.01270189   -2.05759258
C    4.86702614   -0.08566829   -1.19530239
H    5.37437849   -0.10296033   -2.14908512
C    5.57739937   -0.11138091    0.00031063
H    6.65773537   -0.14914566    0.00115993
C    4.86515192   -0.08635980    1.19485049
H    5.37095065   -0.10418413    2.14933618
C    3.47559827   -0.03661012    1.14389640
H    2.88959249   -0.01393569    2.05401509
