12
MeNH2 ... Peptide Monomer B
C    3.02878276    2.63522296   -0.25514863
H    3.15340123    3.04639969   -1.25419296
H    3.53535414    3.27621551    0.46263589
H    1.96237101    2.60869343   -0.03672720
C    3.54077446    1.21742528   -0.25285460
O    3.08079457    0.35168886   -0.99202921
N    4.52725742    0.94439293    0.63947611
H    4.92701844    1.69932571    1.16482887
C    5.11570276   -0.37519761    0.71697568
H    4.32752615   -1.11652776    0.62395508
H    5.83696254   -0.54719299   -0.08156871
H    5.61035628   -0.49106580    1.67691521
