12
Uracil ...  Uracil (pi-pi) Monomer B
N   -1.51404116   -0.86342391    0.73462494
H   -1.18895245   -1.40990029    1.52335563
C   -1.44612276   -1.48120625   -0.52065500
O   -1.05770141   -2.63475421   -0.62597673
N   -2.14856298    1.18953186   -0.09807182
H   -1.86442556   -1.01451913   -2.61199556
C   -2.16287692    0.67349479   -1.36439740
H   -2.43465703    1.36738360   -2.14564531
C   -1.85165239   -0.61561424   -1.61248722
H   -2.26659426    2.17784446    0.05682913
C   -1.78308508    0.46152954    1.01871830
O   -1.69825606    0.94813994    2.12980905
