24
Benzene ...  Uracil (pi-pi) Dimer
C    0.82576911    1.23652484   -0.04025044
H    1.52101317    2.06312520   -0.08247145
C    1.30015992   -0.06294088    0.12725601
H    2.36365753   -0.24226113    0.20767420
C    0.40352312   -1.12855218    0.19824486
H    0.77375338   -2.13742677    0.32412109
C   -0.96780949   -0.89519049    0.10313994
H   -1.66520900   -1.71998342    0.16042745
C   -1.44350838    0.40448328   -0.06244130
H   -2.50751124    0.58550112   -0.12415016
C   -0.54575549    1.46876875   -0.13624741
H   -0.91422190    2.47742220   -0.26785516
N   -0.28165718    0.69063527    3.03974698
H   -0.65496458    1.59239669    2.77685401
C    1.11048950    0.61764836    3.17176032
O    1.80139982    1.61207205    3.02692625
C    1.58938961   -0.71642935    3.48987052
H    2.64644171   -0.86864529    3.62399166
C    0.70968038   -1.73081053    3.61608705
H    1.01560791   -2.73923113    3.85261141
N   -0.63556550   -1.54577861    3.44599490
H   -1.28431333   -2.30833755    3.54486407
C   -1.21001381   -0.32097758    3.14658029
O   -2.40780222   -0.17015430    3.00446810
