17
Neopentane ...  Pentane Monomer B
C   -0.00050899    0.05997894    5.10084302
C    0.00056275   -0.08015216    6.62057598
H   -0.88647327    0.38392388    7.05394539
H    0.00981425   -1.13093241    6.91358585
H    0.87922298    0.39951240    7.05421905
C   -1.23996433   -0.62167309    4.52694451
H   -1.26326354   -0.53271597    3.44011533
H   -1.25204996   -1.68294949    4.77995771
H   -2.15090805   -0.16938183    4.92202963
C    1.25209612   -0.59756187    4.52737269
H    1.27342291   -0.50927620    3.44040173
H    1.28522665   -1.65812271    4.78146501
H    2.15390835   -0.12691855    4.92179381
C   -0.01475687    1.53977143    4.72622175
H    0.86300913    2.05035845    5.12517688
H   -0.01528107    1.66622636    3.64257006
H   -0.90286281    2.03310514    5.12400989
