11
MeNH2 ...  Pyridine Monomer B
N    2.12842999   -1.21286309    0.01517572
C    2.46686631   -0.40051902   -0.99653675
H    1.92419909   -0.54505700   -1.92191811
C    3.43819557    0.59161477   -0.89616975
H    3.66304801    1.21595506   -1.74902044
C    4.09903564    0.76115621    0.31609469
H    4.85688958    1.52339355    0.43247882
C    3.75890273   -0.07380631    1.37521764
H    4.24149114    0.01665592    2.33791830
C    2.77512116   -1.03859532    1.17603426
H    2.48903683   -1.70234293    1.98264492
