17
Uracil ...  Pentane Monomer B
C    1.14397811    2.35736448    4.08760108
H    0.71312950    2.66841317    3.13481851
H    0.50974420    2.76279760    4.87584873
H    2.12685814    2.81781189    4.18072257
C    1.21699457    0.83849353    4.17711942
H    1.64737822    0.54893067    5.13841038
H    1.89158417    0.44733298    3.41200126
C   -0.14779061    0.18032688    4.02230266
H   -0.81903488    0.54920269    4.80392190
H   -0.59526148    0.49059190    3.07240244
C   -0.09150168   -1.34035967    4.08193816
H    0.33210382   -1.64279009    5.04257435
H    0.60002007   -1.70223861    3.31743573
C   -1.46078460   -1.98223288    3.89816451
H   -1.89916359   -1.70877520    2.93797900
H   -1.40384581   -3.06900127    3.94222170
H   -2.14874738   -1.65388690    4.67739755
