20
AcOH ... Uracil Dimer
C   -1.11362611    1.32702009    0.27516705
O   -0.46708264    2.34938778    0.46153746
O   -0.57808939    0.13692049    0.04961747
H    0.41332036    0.20325661    0.05548711
C   -2.61142469    1.28618957    0.27736131
H   -3.00664872    2.27688545    0.46578983
H   -2.96425623    0.91525868   -0.68200123
H   -2.95311421    0.59179821    1.04124041
N    5.90123458    1.13116160    0.17642291
H    6.29443970    0.21577137    0.00470348
C    6.82276249    2.17927722    0.35787602
O    8.01990888    1.96098141    0.30499606
C    6.18369642    3.45873960    0.59848317
H    6.80323118    4.32566448    0.74996045
C    4.83661222    3.53872976    0.62786441
H    4.31377203    4.46717676    0.80316262
N    4.03288147    2.44804777    0.43745838
H    3.00882964    2.51799546    0.46124864
C    4.53281395    1.19782499    0.20328615
O    3.82078151    0.20832010    0.02981597
