12
Uracil ...  Uracil (pi-pi) Monomer B
N   -2.73726227   -1.07460600    0.73462494
H   -2.41217356   -1.62108239    1.52335563
C   -2.66934387   -1.69238835   -0.52065500
O   -2.28092252   -2.84593630   -0.62597673
N   -3.37178409    0.97834977   -0.09807182
H   -3.08764667   -1.22570122   -2.61199556
C   -3.38609803    0.46231269   -1.36439740
H   -3.65787814    1.15620150   -2.14564531
C   -3.07487351   -0.82679634   -1.61248722
H   -3.48981538    1.96666237    0.05682913
C   -3.00630619    0.25034744    1.01871830
O   -2.92147718    0.73695784    2.12980905
