7
Water ... MeNH2 Monomer B
N    2.28441913    0.10517290    0.00609435
H    2.57978356   -0.44746508   -0.78869652
H    2.59449962   -0.40554819    0.82295384
C    2.94375440    1.41353686   -0.03414729
H    2.63321198    1.99526182    0.83036813
H    4.03506369    1.37424189   -0.04310296
H    2.61704213    1.94945433   -0.92197110
