11
Benzene ...  Pyridine (TS) Monomer B
N    0.00465540    0.05437074    8.23902335
C    0.15933923    0.99233234    7.29414647
H    0.30111005    2.00485835    7.65204819
C    0.14512996    0.72504258    5.92764703
H    0.27537002    1.52606838    5.21376162
C   -0.03920835   -0.58658711    5.50235660
H   -0.05577481   -0.82970577    4.44900867
C   -0.20105728   -1.57162144    6.47121569
H   -0.34760030   -2.60683241    6.19644417
C   -0.17185481   -1.20428834    7.81430519
H   -0.29545094   -1.95180231    8.58840619
