24
Peptide ... Peptide Dimer
C   -0.70150294   -0.29062770    2.40688440
H   -1.18329596    0.39564777    3.09887422
H    0.34956157   -0.03032157    2.30783303
H   -0.79405685   -1.29160545    2.82403929
C   -1.44854625   -0.24487664    1.09181530
O   -2.66045000   -0.42847909    1.03434577
N   -0.67005656    0.00591656    0.00977691
H    0.32667532    0.12256396    0.14159284
C   -1.22705457    0.08979374   -1.31996754
H   -2.29202426   -0.10650119   -1.24087756
H   -1.07780169    1.07994030   -1.74854354
H   -0.77662849   -0.64799919   -1.98337273
C    3.04386931   -2.41294085    0.76480242
H    3.60209411   -3.32294409    0.55889442
H    2.11517745   -2.41947030    0.20047701
H    2.78465038   -2.38949415    1.82174342
C    3.81150525   -1.15852881    0.42856568
O    3.26631861   -0.05709201    0.37159329
N    5.13826346   -1.32734258    0.21481771
H    5.51458476   -2.25458828    0.29157504
C    6.02550165   -0.22087661   -0.07413082
H    5.41130927    0.66993317   -0.15395454
H    6.75291620   -0.08141088    0.72327248
H    6.55049194   -0.38085834   -1.01327316
