24
Uracil ...  Uracil (pi-pi) Dimer
N    1.37690111    0.83974747    0.73462494
H    1.05181240    1.38622385    1.52335563
C    1.30898271    1.45752981   -0.52065500
O    0.92056136    2.61107777   -0.62597673
N    2.01142293   -1.21320830   -0.09807182
H    1.72728551    0.99084268   -2.61199556
C    2.02573687   -0.69717123   -1.36439740
H    2.29751698   -1.39106004   -2.14564531
C    1.71451235    0.59193780   -1.61248722
H    2.12945422   -2.20152091    0.05682913
C    1.64594503   -0.48520598    1.01871830
O    1.56111602   -0.97181638    2.12980905
N   -0.82662661   -0.74474573    0.73462494
H   -0.50153790   -1.29122212    1.52335563
C   -0.75870820   -1.36252808   -0.52065500
O   -0.37028685   -2.51607603   -0.62597673
N   -1.46114842    1.30821004   -0.09807182
H   -1.17701100   -0.89584095   -2.61199556
C   -1.47546236    0.79217296   -1.36439740
H   -1.74724247    1.48606177   -2.14564531
C   -1.16423784   -0.49693607   -1.61248722
H   -1.57917971    2.29652264    0.05682913
C   -1.09567052    0.58020771    1.01871830
O   -1.01084151    1.06681811    2.12980905
