12
Benzene ...  Uracil (pi-pi) Monomer B
N   -0.28752270    0.70712235    2.88489905
H   -0.66083010    1.60888378    2.62200608
C    1.10462398    0.63413545    3.01691239
O    1.79553430    1.62855914    2.87207832
C    1.58352409   -0.69994226    3.33502259
H    2.64057619   -0.85215820    3.46914372
C    0.70381487   -1.71432344    3.46123911
H    1.00974239   -2.72274404    3.69776347
N   -0.64143102   -1.52929152    3.29114697
H   -1.29017885   -2.29185046    3.39001614
C   -1.21587933   -0.30449049    2.99173235
O   -2.41366774   -0.15366721    2.84962016
