9
AcNH2 ... AcNH2 Monomer B
C    3.25770070    1.07379961    0.16411412
O    2.67327893    0.09977917   -0.31561684
N    2.61361313    2.15854283    0.63196068
H    1.59350777    2.20298062    0.59765936
H    3.13163720    2.92650403    1.01208133
C    4.76469988    1.09808399    0.24933921
H    5.15657094    1.99773351    0.71652322
H    5.16825607    1.01053895   -0.75644110
H    5.09247864    0.22750909    0.81151955
