17
Uracil ...  Pentane Monomer B
C    1.28205649    2.37528361    5.73028979
H    0.85120787    2.68633231    4.77750722
H    0.64782258    2.78071673    6.51853744
H    2.26493651    2.83573103    5.82341127
C    1.35507295    0.85641266    5.81980813
H    1.78545660    0.56684981    6.78109908
H    2.02966254    0.46525211    5.05468996
C   -0.00971224    0.19824601    5.66499137
H   -0.68095650    0.56712182    6.44661061
H   -0.45718311    0.50851103    4.71509114
C    0.04657670   -1.32244054    5.72462687
H    0.47018220   -1.62487095    6.68526305
H    0.73809844   -1.68431948    4.96012444
C   -1.32270622   -1.96431375    5.54085321
H   -1.76108522   -1.69085607    4.58066770
H   -1.26576743   -3.05108214    5.58491040
H   -2.01066900   -1.63596777    6.32008626
