8
Pentane ...  AcOH Monomer B
C   -0.45217153   -0.27972030    3.96050703
O   -0.87478547   -1.39490055    3.76336045
O   -1.26586389    0.77924521    4.19309651
H   -2.16662600    0.42486468    4.15256077
C    0.98809553    0.12994578    3.97771241
H    1.61391859   -0.74023517    3.81955725
H    1.16413294    0.86421941    3.19458783
H    1.22540678    0.59924673    4.92951480
