21
Ethyne ...  Pentane Dimer
C   -0.60618936    0.05587406    0.58900491
H   -1.66803667    0.05577624    0.58901162
C    0.60584873    0.05554087    0.58926624
H    1.66767817    0.05486328    0.58972794
C   -2.53039449   -0.35054529    4.38313482
H   -2.53876112   -1.01249883    3.51672423
H   -2.58231282   -0.97681451    5.27372560
H   -3.43280911    0.25835876    4.35037320
C   -1.26986237    0.50405542    4.39420409
H   -1.28651403    1.17705465    5.25461321
H   -1.24459538    1.13827143    3.50540798
C    0.00005625   -0.33427558    4.43465943
H    0.00005898   -0.95206523    5.33772082
H    0.00012335   -1.02257473    3.58541824
C    1.26995481    0.50410049    4.39429097
H    1.28658264    1.17706761    5.25471227
H    1.24480989    1.13827281    3.50548978
C    2.53047730   -0.35053609    4.38334455
H    2.53885707   -1.01251884    3.51696548
H    3.43285607    0.25839525    4.35061819
H    2.58229453   -0.97675082    5.27397810
