11
Pyridine ...  Pyridine (CH-N) Monomer B
N    2.53598291   -0.94995570    0.04251417
C    3.73776173   -1.54313193    0.04459401
H    3.73253788   -2.62609439    0.06648317
C    4.94369797   -0.84817338    0.02059263
H    5.88013629   -1.38770855    0.02368664
C    4.91138036    0.54213108   -0.00715408
H    5.82675530    1.11738213   -0.02633559
C    3.67170003    1.17241721   -0.00963119
H    3.59192730    2.24997579   -0.03071975
C    2.51778646    0.39240759    0.01556248
H    1.53787606    0.85607017    0.01389964
