7
Ethyne ...  Water (CH-O) Dimer
C   -1.00686722   -0.03056821   -0.02477285
H    0.05900333   -0.06093974   -0.04936562
C   -2.21874380    0.00317347    0.00259920
H   -3.27927730    0.03352491    0.02720048
O    1.84285884   -0.12940913   -0.10284743
H    2.41321525   -0.71917852    0.39417949
H    2.41485468    0.22157889   -0.78821959
