18
MeNH2 ...  Pyridine Dimer
N   -0.54105920    0.02957620   -0.20899508
H    0.05555335   -0.78611810   -0.13029335
H   -1.46966940   -0.27470845    0.05314338
C   -0.07879927    1.04239036    0.73845886
H   -0.72015294    1.91941377    0.67198026
H   -0.05075819    0.72382293    1.78551453
H    0.92643072    1.35660379    0.46199919
N    2.35864105   -1.26025685    0.03133133
C    2.69707736   -0.44791278   -0.98038114
H    2.15441014   -0.59245076   -1.90576250
C    3.66840663    0.54422101   -0.88001414
H    3.89325907    1.16856130   -1.73286483
C    4.32924669    0.71376245    0.33225030
H    5.08710064    1.47599979    0.44863443
C    3.98911378   -0.12120007    1.39137325
H    4.47170219   -0.03073783    2.35407391
C    3.00533222   -1.08598908    1.19218987
H    2.71924789   -1.74973669    1.99880053
