9
Pentane ...  AcNH2 Monomer B
C    0.04907896    0.21603512    4.44181793
O    0.07599122    1.40110860    4.14997675
N    1.18165923   -0.53584253    4.54463788
H    2.05259948   -0.11326201    4.27597562
H    1.14272126   -1.52772919    4.67606080
C   -1.24114202   -0.52290237    4.70627176
H   -1.09389202   -1.48362373    5.19339613
H   -1.74736955   -0.68121130    3.75545842
H   -1.87908597    0.10433406    5.32154362
