21
Ethyne ...  Pentane Dimer
C   -0.60618936    0.05587406    0.58900491
H   -1.66803667    0.05577624    0.58901162
C    0.60584873    0.05554087    0.58926624
H    1.66767817    0.05486328    0.58972794
C   -2.53042272   -0.34128342    3.88959258
H   -2.53878935   -1.00323696    3.02318199
H   -2.58234105   -0.96755264    4.78018336
H   -3.43283734    0.26762064    3.85683096
C   -1.26989059    0.51331730    3.90066185
H   -1.28654226    1.18631652    4.76107097
H   -1.24462360    1.14753331    3.01186574
C    0.00002803   -0.32501371    3.94111719
H    0.00003076   -0.94280335    4.84417858
H    0.00009512   -1.01331286    3.09187600
C    1.26992659    0.51336236    3.90074873
H    1.28655441    1.18632948    4.76117003
H    1.24478167    1.14753468    3.01194753
C    2.53044908   -0.34127421    3.88980231
H    2.53882884   -1.00325697    3.02342324
H    3.43282785    0.26765713    3.85707595
H    2.58226631   -0.96748895    4.78043586
