17
Pyridine ...  Ethene Dimer
N    1.38138219   -0.00023348    0.13146374
C    0.67935079   -1.14023946    0.09207966
H    1.25871960   -2.05496223    0.12588361
C   -0.70972232   -1.19311407    0.00666426
H   -1.21408768   -2.14856163   -0.02530851
C   -1.42161357    0.00013343   -0.04081690
H   -2.50069615    0.00025757   -0.10916973
C   -0.70940120    1.19317538    0.00652198
H   -1.21351163    2.14874784   -0.02552831
C    0.67965167    1.13995623    0.09189303
H    1.25926073    2.05451090    0.12550248
C    0.01338364    0.66640920    2.79601719
H    0.92385765    1.22589492    2.63690234
H   -0.89616386    1.22881343    2.95297769
C    0.01371633   -0.66627810    2.79614943
H    0.92445202   -1.22536058    2.63713899
H   -0.89557177   -1.22910287    2.95323858
