22
Pyridine ...  Pyridine (TS) Dimer
N    1.32276272   -0.01037598    1.01918373
C    0.65128601   -1.14899203    0.79680119
H    1.20041842   -2.06552808    0.97367282
C   -0.67268130   -1.19471172    0.36665693
H   -1.15719362   -2.14732141    0.20646407
C   -1.34719675    0.00313399    0.15214401
H   -2.37535653    0.00840542   -0.18229302
C   -0.66455797    1.19409062    0.37900199
H   -1.14262633    2.15155765    0.22872051
C    0.65889576    1.13497854    0.80885987
H    1.21410272    2.04591045    0.99543831
N   -0.32394318   -0.01404732    9.40080479
C    0.54672484   -0.01966011    8.38139176
H    1.59458141   -0.01841158    8.65569455
C    0.17333910   -0.02672787    7.03956369
H    0.92079976   -0.03089189    6.25846404
C   -1.18270946   -0.02814193    6.72714822
H   -1.51243814   -0.03359741    5.69686677
C   -2.10081272   -0.02242685    7.77231783
H   -3.16526276   -0.02327624    7.58358205
C   -1.62520892   -0.01550919    9.08127668
H   -2.31739258   -0.01092606    9.91446789
