29
Peptide ...  Pentane Dimer
C    1.37219093    1.01247736    0.97082468
H    0.95217623    2.01404955    1.03311725
H    1.94742170    0.92651560    0.05071776
H    2.05170208    0.85182517    1.80295247
C    0.32673706   -0.07764727    0.98819876
O    0.61882128   -1.25248130    1.17128126
N   -0.95002884    0.34488680    0.77391491
H   -1.10467156    1.32202550    0.60611216
C   -2.05985440   -0.57736895    0.68015349
H   -1.66935602   -1.56679601    0.89718425
H   -2.83459176   -0.33138032    1.40366139
H   -2.49097050   -0.57892483   -0.31993926
C    2.66491117    0.46571710    4.90308107
H    2.78175045    1.22013300    4.12433625
H    2.57880080    0.99060342    5.85473713
H    3.57700261   -0.12852481    4.92988908
C    1.43663894   -0.39767041    4.64552952
H    1.34206959   -1.14312441    5.43858036
H    1.55305907   -0.95113474    3.71168572
C    0.15410110    0.42094354    4.58022817
H    0.04253078    0.99867842    5.50331182
H    0.23333525    1.15375845    3.77057552
C   -1.09025519   -0.42939170    4.36334827
H   -1.18105715   -1.14387818    5.18476550
H   -0.96244818   -1.01832942    3.45313382
C   -2.35709369    0.41089981    4.27323355
H   -2.29018045    1.11795079    3.44546432
H   -3.24243590   -0.20511768    4.11940064
H   -2.50744973    0.98711090    5.18645314
