11
Water ... Pyridine Monomer B
N    2.60504260    0.10878330    0.00019604
C    3.30094924    0.07481251    1.14494388
H    2.71627669    0.09842345    2.05581191
C    4.68997283    0.00963008    1.19493995
H    5.19587921   -0.01522408    2.14926907
C    5.40113597   -0.02349572    0.00002880
H    6.48097593   -0.07526927   -0.00005163
C    4.68982768    0.00956342   -1.19477250
H    5.19562462   -0.01530960   -2.14917110
C    3.30079766    0.07475841   -1.14462624
H    2.71602878    0.09835907   -2.05541879
