24
Benzene ...  Benzene (pi-pi) Dimer
C    0.71264532    1.12099570    0.06054078
H    1.35784165    1.98639917    0.12773717
C    1.25823573   -0.15925190    0.12423352
H    2.32495428   -0.28709988    0.24674303
C    0.42688496   -1.27452666    0.04265043
H    0.85044465   -2.26843268    0.09474995
C   -0.94957784   -1.11007406   -0.10031360
H   -1.59445570   -1.97627370   -0.16371348
C   -1.49552564    0.17105056   -0.16154602
H   -2.56378279    0.29922115   -0.27370311
C   -0.66382760    1.28664289   -0.08340143
H   -1.08690070    2.28100020   -0.13288613
C    1.58354623    1.11354979    2.55397736
H    2.22839135    1.97973353    2.61772808
C    2.12949936   -0.16760131    2.61549709
H    3.19770624   -0.29574836    2.72824131
C    1.29784988   -1.28320141    2.53684667
H    1.72093158   -2.27755385    2.58650033
C   -0.07855168   -1.11756638    2.39212992
H   -0.72365428   -1.98297663    2.32449729
C   -0.62411156    0.16266636    2.32816409
H   -1.69073959    0.29049558    2.20498533
C    0.20716539    1.27794713    2.41023503
H   -0.21635949    2.27185216    2.35786610
