9
Water ... MeOH Dimer
O   -0.52532979   -0.05097108   -0.31451686
H   -0.94200663    0.74790163    0.01125282
H    0.40369652    0.05978598   -0.07356837
O    1.96921304    0.04809526    0.04544654
H    2.33719586   -0.52398214    0.72297486
C    2.43421811   -0.42353466   -1.21671257
H    2.00340102    0.22755903   -1.96982660
H    3.52018180   -0.37274180   -1.29102450
H    2.10587549   -1.44340415   -1.41579321
