23
Ethene ...  Pentane Dimer
C    0.66640038    0.18381078    0.41973683
H    1.22888182   -0.32988301    1.18625971
H    1.22803556    0.69720813   -0.34760989
C   -0.66597358    0.18297343    0.41961191
H   -1.22792171   -0.33149890    1.18610334
H   -1.22818427    0.69564575   -0.34774808
C   -2.53275360   -0.38814618    4.06053820
H   -2.56224704   -1.00116696    3.15934832
H   -2.56888755   -1.06236680    4.91615521
H   -3.43392496    0.22287025    4.07778414
C   -1.27131712    0.46452924    4.09635614
H   -1.27172298    1.08462281    4.99575008
H   -1.26292877    1.15143755    3.24729572
C   -0.00004286   -0.37302833    4.06941293
H   -0.00019691   -1.05970104    4.92124494
H    0.00009821   -1.00060617    3.17277044
C    1.27117755    0.46455810    4.09681747
H    1.27145055    1.08436885    4.99630288
H    1.26298273    1.15163274    3.24790984
C    2.53262893   -0.38816642    4.06099328
H    2.56225240   -1.00102292    3.15968411
H    3.43380704    0.22276975    4.07857132
H    2.56854729   -1.06262250    4.91649899
