7
MeNH2 ... Peptide Monomer A
N   -0.56970824    0.81437245    0.10109775
H    0.13087774    0.56141065   -0.58761455
H   -1.46125215    0.52691480   -0.28042996
C   -0.30551437    0.06571030    1.32879173
H   -1.05714948    0.31427017    2.07595940
H   -0.28802353   -1.02229248    1.21484626
H    0.66045772    0.36850913    1.73024224
