19
Benzene ...  MeNH2 (NH-pi) Dimer
C    0.69231523    1.08829204    0.32484124
H    1.28194880    1.99194678    0.25251578
C    1.31818722   -0.15687008    0.28689607
H    2.39314337   -0.21947636    0.18840681
C    0.55801841   -1.32195045    0.38139986
H    1.04391922   -2.28757380    0.35761542
C   -0.82755236   -1.24142187    0.51168501
H   -1.41670095   -2.14525152    0.58533927
C   -1.45341138    0.00367145    0.54838107
H   -2.52823255    0.06570272    0.64984254
C   -0.69346094    1.16840108    0.45622907
H   -1.17873534    2.13440989    0.48572685
N    0.27464526   -0.22310549    3.86318009
H    0.40926362   -0.17906499    2.86010873
H    0.41613783    0.72204125    4.19565237
C   -1.10145421   -0.62948890    4.14061588
H   -1.25933078   -0.65803591    5.21717142
H   -1.87275640    0.01089189    3.70049689
H   -1.25614619   -1.63905670    3.76499418
