7
Benzene ...  MeNH2 (NH-pi) Monomer B
N    0.30218457   -0.19761993    3.58268406
H    0.43680293   -0.15357942    2.57961271
H    0.44367714    0.74752681    3.91515634
C   -1.07391491   -0.60400334    3.86011986
H   -1.23179147   -0.63255034    4.93667539
H   -1.84521709    0.03637745    3.42000086
H   -1.22860689   -1.61357114    3.48449815
