12
Peptide ...  Pentane Monomer A
C    1.37219093    1.01247736    0.97082468
H    0.95217623    2.01404955    1.03311725
H    1.94742170    0.92651560    0.05071776
H    2.05170208    0.85182517    1.80295247
C    0.32673706   -0.07764727    0.98819876
O    0.61882128   -1.25248130    1.17128126
N   -0.95002884    0.34488680    0.77391491
H   -1.10467156    1.32202550    0.60611216
C   -2.05985440   -0.57736895    0.68015349
H   -1.66935602   -1.56679601    0.89718425
H   -2.83459176   -0.33138032    1.40366139
H   -2.49097050   -0.57892483   -0.31993926
