12
Peptide ... Peptide Monomer B
C    1.47631165   -2.31713974    0.64215524
H    2.03453645   -3.22714298    0.43624723
H    0.54761979   -2.32366919    0.07782982
H    1.21709272   -2.29369304    1.69909624
C    2.24394759   -1.06272770    0.30591850
O    1.69876095    0.03870910    0.24894611
N    3.57070580   -1.23154147    0.09217053
H    3.94702710   -2.15878717    0.16892785
C    4.45794399   -0.12507550   -0.19677801
H    3.84375161    0.76573428   -0.27660172
H    5.18535854    0.01439023    0.60062530
H    4.98293428   -0.28505723   -1.13592034
