17
Neopentane ...  Neopentane Monomer B
C   -0.59124427    0.10925234    7.45054918
C    0.83156818   -0.35971366    7.15714964
H    1.01600738   -0.39904281    6.08262918
H    1.56300233    0.31795917    7.59988522
H    1.00383185   -1.35671970    7.56527022
C   -0.79764108    1.50581387    6.86971871
H   -1.80960418    1.86279931    7.06656624
H   -0.09672248    2.21688534    7.30944048
H   -0.64453186    1.50601048    5.78957636
C   -0.81153876    0.14942855    8.96040281
H   -1.82275492    0.48370554    9.19647600
H   -0.10902631    0.83437759    9.43724103
H   -0.67097567   -0.83909179    9.39985455
C   -1.58770699   -0.85852532    6.81740279
H   -1.45878098   -1.86550070    7.21698176
H   -2.61359609   -0.54475246    7.01579064
H   -1.45300262   -0.90549971    5.73582613
