12
Benzene ...  Benzene (pi-pi) Monomer B
C    2.00975297    1.10955085    3.77323393
H    2.65459809    1.97573460    3.83698464
C    2.55570610   -0.17160025    3.83475366
H    3.62391298   -0.29974730    3.94749788
C    1.72405662   -1.28720035    3.75610323
H    2.14713832   -2.28155278    3.80575689
C    0.34765505   -1.12156532    3.61138648
H   -0.29744754   -1.98697556    3.54375385
C   -0.19790482    0.15866743    3.54742065
H   -1.26453285    0.28649664    3.42424189
C    0.63337213    1.27394819    3.62949160
H    0.20984725    2.26785323    3.57712267
