11
MeOH ... Pyridine Monomer B
N    4.24341197   -0.09176287   -0.00267576
C    4.93978036   -0.11619820   -1.14739537
H    4.35530176   -0.09297466   -2.05837081
C    6.32941742   -0.16594106   -1.19608062
H    6.83676977   -0.18323310   -2.14986334
C    7.03979065   -0.19165368   -0.00046759
H    8.12012665   -0.22941843    0.00038170
C    6.32754320   -0.16663257    1.19407226
H    6.83334193   -0.18445690    2.14855795
C    4.93798955   -0.11688289    1.14311818
H    4.35198377   -0.09420846    2.05323686
