17
Pentane ...  Pentane Monomer B
C    2.53355918    0.30681207    3.93433028
H    2.56814367    0.90661876    3.02500473
H    2.56406249    0.99001864    4.78307510
H    3.43423987   -0.30468524    3.96453922
C    1.27173298   -0.54507521    3.97363453
H    1.26628927   -1.15480292    4.88013149
H    1.27060247   -1.24442895    3.13405347
C   -0.00004201    0.29102389    3.92801809
H   -0.00019694    0.99333387    4.76700256
H    0.00003489    0.89980031    3.01894845
C   -1.27180285   -0.54511808    3.97328963
H   -1.26642061   -1.15522753    4.87953973
H   -1.27069651   -1.24414098    3.13342597
C   -2.53352208    0.30692822    3.93431192
H   -2.56771538    0.90746189    3.02543516
H   -3.43432405   -0.30437013    3.96382510
H   -2.56406161    0.98951447    4.78357331
