6
Benzene ...  MeOH (OH-pi) Monomer B
O   -0.00749614    0.27577627    4.34584227
H    0.07860408    0.32564936    3.38864872
C   -0.90364674   -0.78183781    4.62889731
H   -0.99936743   -0.83857239    5.70983344
H   -1.89579633   -0.61014007    4.20510710
H   -0.53718642   -1.74487888    4.26598579
