9
Benzene ... AcNH2 (NH-pi) Monomer B
C    0.16032387    0.74605739    4.36240256
O    0.40681322    1.78948363    3.77516328
N   -0.14372338   -0.40894915    3.71123522
H   -0.11852307   -0.41596448    2.70459861
H   -0.29949987   -1.26444147    4.20693693
C    0.18316857    0.65116556    5.87082004
H    1.21488237    0.73537784    6.20589383
H   -0.23873534   -0.27547744    6.25184571
H   -0.36629610    1.49501187    6.27759055
