15
Peptide ... Water Dimer
C   -0.72430464   -0.70493582    2.28386786
H    0.33531828   -0.62994325    2.05318235
H   -0.95169666   -1.71198961    2.62565146
H   -0.96962784   -0.02207955    3.09376537
C   -1.61493501   -0.38742925    1.10406897
O   -2.83732387   -0.41502209    1.19413277
N   -0.95342037   -0.07640442   -0.04081980
H    0.05380860   -0.07556651   -0.03664022
C   -1.65812397    0.25009358   -1.25855306
H   -2.72037197    0.17694444   -1.04665270
H   -1.43030493    1.26296263   -1.58809384
H   -1.40562611   -0.44433518   -2.05858358
O    3.16990364   -0.04947009   -0.21675977
H    3.73488092   -0.76242871   -0.52195918
H    3.74965526    0.71472347   -0.19286128
