12
AcNH2 ... Uracil Monomer B
N    5.06871196    1.13057434   -0.10854265
H    5.55874140    0.25461716   -0.22648112
C    5.87233797    2.27341928    0.04193904
O    7.08790000    2.17779695    0.02675427
C    5.09974579    3.48873576    0.20508298
H    5.62150878    4.42192862    0.32811810
C    3.75058508    3.42706023    0.19940622
H    3.13018103    4.30342062    0.31708312
N    3.06550297    2.25477872    0.04484046
H    2.03271250    2.24571766    0.04400314
C    3.69639294    1.05030922   -0.11741958
O    3.09920421   -0.01360674   -0.25922707
