19
MeNH2 ... Peptide Dimer
N   -0.56970824    0.81437245    0.10109775
H    0.13087774    0.56141065   -0.58761455
H   -1.46125215    0.52691480   -0.28042996
C   -0.30551437    0.06571030    1.32879173
H   -1.05714948    0.31427017    2.07595940
H   -0.28802353   -1.02229248    1.21484626
H    0.66045772    0.36850913    1.73024224
C    2.07247623    2.70321075   -0.12404514
H    2.19709470    3.11438748   -1.12308948
H    2.57904761    3.34420330    0.59373938
H    1.00606448    2.67668122    0.09437629
C    2.58446792    1.28541306   -0.12175111
O    2.12448804    0.41967665   -0.86092572
N    3.57095089    1.01238072    0.77057960
H    3.97071191    1.76731349    1.29593235
C    4.15939623   -0.30720983    0.84807916
H    3.37121962   -1.04853997    0.75505857
H    4.88065601   -0.47920520    0.04953477
H    4.65404974   -0.42307801    1.80801869
