12
MeOH ... MeOH Dimer
O   -0.63613493   -0.02328241    0.28059932
H    0.30809737   -0.04707875    0.07646369
C   -1.15206541   -1.31128778    0.01525955
H   -2.20994502   -1.29626539    0.26395586
H   -1.05661024   -1.59267086   -1.03619061
H   -0.67483575   -2.08627276    0.62051145
O    2.24124401   -0.12333775   -0.01353781
H    2.71003332    0.49104677   -0.58320376
C    2.75007794    0.03368119    1.30817952
H    2.19650885   -0.65451524    1.93831040
H    3.80907404   -0.21675771    1.36490266
H    2.59763830    1.04437524    1.68607206
