8
Ethyne ...  AcOH (OH-pi) Monomer B
C    4.91571571   -1.56646067    1.14582035
O    4.66153665   -0.61035842    0.44698261
O    3.96781109   -2.34080090    1.71350696
H    3.10681170   -1.97350191    1.44573582
C    6.29135086   -2.04791050    1.49597126
H    7.02973667   -1.41036041    1.02512094
H    6.41756138   -2.03605577    2.57600659
H    6.41362800   -3.07575505    1.16273693
