12
Uracil ... Uracil (BP) Monomer B
N    3.97545216   -1.07692952    0.00049841
H    4.42269594   -0.17035632    0.00088523
C    4.83149993   -2.19154731   -0.00100146
O    6.04095195   -2.03984290   -0.00175066
C    4.11728150   -3.45372085   -0.00150586
H    4.68386605   -4.36875160   -0.00264449
C    2.76711252   -3.45753872   -0.00054576
H    2.19014928   -4.37050349   -0.00086444
N    2.02912111   -2.30665788    0.00090465
H    1.00278485   -2.32810068    0.00158172
C    2.60189205   -1.06199284    0.00145530
O    1.95157117   -0.02077454    0.00269169
