12
Peptide ... Peptide Monomer B
C    3.04386931   -2.41294085    0.76480242
H    3.60209411   -3.32294409    0.55889442
H    2.11517745   -2.41947030    0.20047701
H    2.78465038   -2.38949415    1.82174342
C    3.81150525   -1.15852881    0.42856568
O    3.26631861   -0.05709201    0.37159329
N    5.13826346   -1.32734258    0.21481771
H    5.51458476   -2.25458828    0.29157504
C    6.02550165   -0.22087661   -0.07413082
H    5.41130927    0.66993317   -0.15395454
H    6.75291620   -0.08141088    0.72327248
H    6.55049194   -0.38085834   -1.01327316
