6
Benzene ...  MeOH (OH-pi) Monomer B
O    0.03547430    0.29974564    3.82503580
H    0.12157451    0.34961873    2.86784225
C   -0.86067630   -0.75786843    4.10809084
H   -0.95639700   -0.81460302    5.18902697
H   -1.85282589   -0.58617069    3.68430064
H   -0.49421599   -1.72090950    3.74517932
