8
Pentane ...  AcOH Monomer B
C   -0.61462859   -0.32186317    4.79243171
O   -1.03724253   -1.43704342    4.59528513
O   -1.42832094    0.73710235    5.02502119
H   -2.32908305    0.38272181    4.98448545
C    0.82563848    0.08780291    4.80963709
H    1.45146154   -0.78237804    4.65148193
H    1.00167589    0.82207654    4.02651251
H    1.06294972    0.55710386    5.76143948
