29
Benzene ...  Neopentane Dimer
C    0.31195353    0.56102334    0.49669886
H    0.74213608    1.55336911    0.48156571
C    1.14218235   -0.55807461    0.53606185
H    2.21651131   -0.43425014    0.55235015
C    0.58780415   -1.83668704    0.55414435
H    1.23191239   -2.70484153    0.58522179
C   -0.79665772   -1.99637562    0.53296300
H   -1.22677442   -2.98844427    0.54863708
C   -1.62689297   -0.87747365    0.49416828
H   -2.70112211   -1.00134997    0.47981498
C   -1.07266525    0.40120590    0.47597397
H   -1.71697357    1.26940117    0.44591995
C    0.13849425    0.48058743    5.62668550
C    1.58474293    0.65937479    5.17172401
H    2.00059965    1.59265267    5.55514699
H    2.20814225   -0.16124084    5.53057788
H    1.64535206    0.67876608    4.08278980
C    0.08410288    0.44921629    7.15155082
H   -0.94168715    0.32179587    7.50063859
H    0.67950878   -0.37647057    7.54410455
H    0.47239736    1.37710092    7.57445640
C   -0.41088579   -0.82890454    5.06638948
H   -1.44575939   -0.97917958    5.37906107
H    0.17557079   -1.67787830    5.42220075
H   -0.38210595   -0.82935732    3.97607524
C   -0.70287853    1.64515912    5.11048003
H   -0.68133758    1.68118951    4.02048146
H   -1.74266768    1.54138955    5.42496251
H   -0.32722594    2.59585359    5.49258694
