23
Ethene ...  Pentane Dimer
C    0.66640038    0.18381078    0.41973683
H    1.22888182   -0.32988301    1.18625971
H    1.22803556    0.69720813   -0.34760989
C   -0.66597358    0.18297343    0.41961191
H   -1.22792171   -0.33149890    1.18610334
H   -1.22818427    0.69564575   -0.34774808
C   -2.53278700   -0.41714673    4.50663890
H   -2.56228044   -1.03016752    3.60544902
H   -2.56892095   -1.09136735    5.36225591
H   -3.43395836    0.19386969    4.52388485
C   -1.27135051    0.43552868    4.54245684
H   -1.27175638    1.05562225    5.44185078
H   -1.26296217    1.12243700    3.69339642
C   -0.00007625   -0.40202889    4.51551363
H   -0.00023031   -1.08870160    5.36734564
H    0.00006481   -1.02960673    3.61887114
C    1.27114415    0.43555754    4.54291817
H    1.27141716    1.05536829    5.44240358
H    1.26294933    1.12263219    3.69401054
C    2.53259554   -0.41716697    4.50709398
H    2.56221901   -1.03002347    3.60578480
H    3.43377365    0.19376920    4.52467202
H    2.56851390   -1.09162305    5.36259969
