8
Ethyne ...  Ethyne (TS) Dimer
C   -0.60172996   -0.02857012    0.38493492
H   -1.66373543   -0.02852657    0.37901431
C    0.61010917   -0.02866364    0.38816379
H    1.67213544   -0.02879308    0.38796752
C   -0.00569282    0.08087188    3.59229333
H   -0.00229844    0.04713683    2.52899644
C   -0.00962924    0.11916190    4.80375871
H   -0.01289548    0.15253778    5.86467013
