18
MeNH2 ...  Pyridine Dimer
N   -0.54105920    0.02957620   -0.20899508
H    0.05555335   -0.78611810   -0.13029335
H   -1.46966940   -0.27470845    0.05314338
C   -0.07879927    1.04239036    0.73845886
H   -0.72015294    1.91941377    0.67198026
H   -0.05075819    0.72382293    1.78551453
H    0.92643072    1.35660379    0.46199919
N    3.51028261   -1.49734634    0.11215053
C    3.84871893   -0.68500227   -0.89956194
H    3.30605171   -0.82954025   -1.82494330
C    4.82004819    0.30713153   -0.79919494
H    5.04490063    0.93147181   -1.65204563
C    5.48088826    0.47667296    0.41306950
H    6.23874220    1.23891030    0.52945363
C    5.14075535   -0.35828956    1.47219245
H    5.62334375   -0.26782732    2.43489310
C    4.15697378   -1.32307857    1.27300907
H    3.87088945   -1.98682618    2.07961973
