7
MeOH ... MeNH2 Monomer B
N    2.42864241   -0.04912243   -0.00388785
H    2.79926196    0.45865408    0.78924454
H    2.79938525    0.41521614   -0.82314668
C    2.90639435   -1.43515587    0.03357335
H    2.51450951   -1.96918115   -0.82861838
H    3.99310550   -1.54189104    0.03660785
H    2.51426795   -1.92188604    0.92320550
