8
Ethyne ...  AcOH (OH-pi) Monomer B
C    2.96595091   -0.69987780    0.50889338
O    2.71177185    0.25622445   -0.18994437
O    2.01804629   -1.47421803    1.07657999
H    1.15704691   -1.10691904    0.80880885
C    4.34158607   -1.18132763    0.85904429
H    5.07997188   -0.54377754    0.38819397
H    4.46779658   -1.16947290    1.93907962
H    4.46386321   -2.20917218    0.52580996
