12
AcOH ... Uracil Monomer B
N    3.68566292    1.07526155    0.18477872
H    4.07886803    0.15987132    0.01305929
C    4.60719083    2.12337717    0.36623183
O    5.80433721    1.90508136    0.31335186
C    3.96812476    3.40283955    0.60683898
H    4.58765952    4.26976443    0.75831625
C    2.62104055    3.48282970    0.63622021
H    2.09820036    4.41127671    0.81151842
N    1.81730980    2.39214772    0.44581418
H    0.79325797    2.46209541    0.46960445
C    2.31724229    1.14192493    0.21164196
O    1.60520984    0.15242005    0.03817178
