17
Cyclopentane ...  Neopentane Monomer B
C    0.02711678    0.04994346    4.59803433
C   -0.06922742   -0.10214252    6.11367481
H    0.92331895   -0.11760872    6.56603203
H   -0.62815218    0.72574199    6.55210972
H   -0.57639211   -1.03080860    6.37902440
C    0.74117002    1.35684857    4.26240945
H    0.82268957    1.49034771    3.18272758
H    0.19769764    2.21153701    4.66791083
H    1.74877457    1.36749899    4.68064245
C   -1.37789503    0.06976811    4.00071481
H   -1.34096344    0.18695804    2.91686584
H   -1.96019457    0.89719167    4.40906073
H   -1.90779809   -0.85801874    4.22204410
C    0.81501659   -1.12354144    4.02069616
H    0.31979628   -2.07053218    4.24093930
H    0.90985977   -1.03635868    2.93756138
H    1.81973468   -1.16094608    4.44444461
