25
Pentane ...  AcOH Dimer
C   -2.27534498   -0.13507494    0.83133387
H   -2.49071776   -0.72792669   -0.05756635
H   -2.22632382   -0.81844641    1.67882341
H   -3.11202566    0.54494342    0.98740008
C   -0.96169812    0.61927789    0.66939920
H   -0.78869920    1.25043181    1.54470266
H   -1.02617687    1.29544524   -0.18645838
C    0.22650217   -0.31471031    0.47998579
H    0.30944439   -0.97513911    1.34803794
H    0.03915056   -0.96599875   -0.37878983
C    1.54300168    0.42117452    0.26899951
H    1.71163863    1.10777177    1.10244654
H    1.46609466    1.04374331   -0.62529358
C    2.72757632   -0.52686091    0.13745931
H    2.58874155   -1.20321391   -0.70575734
H    3.66150100    0.01169308   -0.01596863
H    2.83519407   -1.13740994    1.03407512
C   -0.47540050   -0.28574611    4.07946000
O   -0.89801444   -1.40092636    3.88231342
O   -1.28909286    0.77321940    4.31204948
H   -2.18985496    0.41883887    4.27151374
C    0.96486657    0.12391997    4.09666538
H    1.59068963   -0.74626098    3.93851022
H    1.14090398    0.85819360    3.31354080
H    1.20217781    0.59322092    5.04846777
