23
Benzene ...  Pyridine (TS) Dimer
C    0.84507720    1.05791869    0.69945490
H    1.50640601    1.90322178    0.83338235
C    1.37550931   -0.21745534    0.51116093
H    2.44718367   -0.36147258    0.50285232
C    0.52406810   -1.30704432    0.33319233
H    0.93572726   -2.29602641    0.18492305
C   -0.85771573   -1.12146341    0.34638409
H   -1.51838119   -1.96645805    0.20836325
C   -1.38804570    0.15363438    0.53761349
H   -2.45971752    0.29741587    0.55003229
C   -0.53661315    1.24342221    0.71273882
H   -0.94892427    2.23280628    0.85736635
N    0.02554380    0.39114607    6.58206392
C    0.18022762    1.32910767    5.63718704
H    0.32199845    2.34163368    5.99508877
C    0.16601836    1.06181791    4.27068760
H    0.29625841    1.86284370    3.55680219
C   -0.01831996   -0.24981178    3.84539717
H   -0.03488641   -0.49293045    2.79204924
C   -0.18016888   -1.23484611    4.81425626
H   -0.32671190   -2.27005708    4.53948475
C   -0.15096641   -0.86751301    6.15734577
H   -0.27456254   -1.61502698    6.93144676
