9
Water ... MeOH Dimer
O   -0.52532979   -0.05097108   -0.31451686
H   -0.94200663    0.74790163    0.01125282
H    0.40369652    0.05978598   -0.07356837
O    2.16477797    0.04663485    0.06031393
H    2.53276079   -0.52544255    0.73784225
C    2.62978304   -0.42499507   -1.20184518
H    2.19896594    0.22609862   -1.95495922
H    3.71574672   -0.37420221   -1.27615711
H    2.30144042   -1.44486456   -1.40092582
