12
Benzene ...  Peptide (NH-pi) Monomer B
C    0.23361314    1.92889867    3.60906030
H   -0.12453196    2.09462951    2.59576753
H    1.25819670    2.28560823    3.69050181
H   -0.37048373    2.50253450    4.30741302
C    0.19676681    0.47573556    4.02476913
O    0.48139521    0.12337414    5.16330719
N   -0.17562846   -0.38998119    3.04552804
H   -0.33675636   -0.03199045    2.11945970
C   -0.21242133   -1.81686042    3.26361510
H   -0.13433376   -1.98376795    4.33361133
H   -1.14766187   -2.23521099    2.89687699
H    0.61670514   -2.32073318    2.76627766
