29
Peptide ...  Pentane Dimer
C    1.37219093    1.01247736    0.97082468
H    0.95217623    2.01404955    1.03311725
H    1.94742170    0.92651560    0.05071776
H    2.05170208    0.85182517    1.80295247
C    0.32673706   -0.07764727    0.98819876
O    0.61882128   -1.25248130    1.17128126
N   -0.95002884    0.34488680    0.77391491
H   -1.10467156    1.32202550    0.60611216
C   -2.05985440   -0.57736895    0.68015349
H   -1.66935602   -1.56679601    0.89718425
H   -2.83459176   -0.33138032    1.40366139
H   -2.49097050   -0.57892483   -0.31993926
C    2.68635797    0.48072861    5.15431415
H    2.80319726    1.23514450    4.37556933
H    2.60024760    1.00561493    6.10597021
H    3.59844941   -0.11351330    5.18112216
C    1.45808575   -0.38265890    4.89676260
H    1.36351639   -1.12811291    5.68981344
H    1.57450588   -0.93612323    3.96291880
C    0.17554790    0.43595504    4.83146125
H    0.06397758    1.01368993    5.75454490
H    0.25478205    1.16876995    4.02180860
C   -1.06880839   -0.41438019    4.61458136
H   -1.15961035   -1.12886668    5.43599858
H   -0.94100138   -1.00331792    3.70436690
C   -2.33564688    0.42591132    4.52446663
H   -2.26873365    1.13296230    3.69669740
H   -3.22098910   -0.19010617    4.37063372
H   -2.48600293    1.00212241    5.43768622
